*SPEF "ieee 1481-1999"
*DESIGN "team_10_Wrapper"
*DATE "21:28:21 Sunday August 25, 2024"
*VENDOR "The OpenROAD Project"
*PROGRAM "OpenROAD"
*VERSION "b16bda7e82721d10566ff7e2b68f1ff0be9f9e38"
*DESIGN_FLOW "NAME_SCOPE LOCAL" "PIN_CAP NONE"
*DIVIDER /
*DELIMITER :
*BUS_DELIMITER []
*T_UNIT 1 NS
*C_UNIT 1 PF
*R_UNIT 1 OHM
*L_UNIT 1 HENRY

*NAME_MAP
*1 ACK_I
*2 ADR_O[0]
*3 ADR_O[10]
*4 ADR_O[11]
*5 ADR_O[12]
*6 ADR_O[13]
*7 ADR_O[14]
*8 ADR_O[15]
*9 ADR_O[16]
*10 ADR_O[17]
*11 ADR_O[18]
*12 ADR_O[19]
*13 ADR_O[1]
*14 ADR_O[20]
*15 ADR_O[21]
*16 ADR_O[22]
*17 ADR_O[23]
*18 ADR_O[24]
*19 ADR_O[25]
*20 ADR_O[26]
*21 ADR_O[27]
*22 ADR_O[28]
*23 ADR_O[29]
*24 ADR_O[2]
*25 ADR_O[30]
*26 ADR_O[31]
*27 ADR_O[3]
*28 ADR_O[4]
*29 ADR_O[5]
*30 ADR_O[6]
*31 ADR_O[7]
*32 ADR_O[8]
*33 ADR_O[9]
*34 CYC_O
*35 DAT_I[0]
*36 DAT_I[10]
*37 DAT_I[11]
*38 DAT_I[12]
*39 DAT_I[13]
*40 DAT_I[14]
*41 DAT_I[15]
*42 DAT_I[16]
*43 DAT_I[17]
*44 DAT_I[18]
*45 DAT_I[19]
*46 DAT_I[1]
*47 DAT_I[20]
*48 DAT_I[21]
*49 DAT_I[22]
*50 DAT_I[23]
*51 DAT_I[24]
*52 DAT_I[25]
*53 DAT_I[26]
*54 DAT_I[27]
*55 DAT_I[28]
*56 DAT_I[29]
*57 DAT_I[2]
*58 DAT_I[30]
*59 DAT_I[31]
*60 DAT_I[3]
*61 DAT_I[4]
*62 DAT_I[5]
*63 DAT_I[6]
*64 DAT_I[7]
*65 DAT_I[8]
*66 DAT_I[9]
*67 DAT_O[0]
*68 DAT_O[10]
*69 DAT_O[11]
*70 DAT_O[12]
*71 DAT_O[13]
*72 DAT_O[14]
*73 DAT_O[15]
*74 DAT_O[16]
*75 DAT_O[17]
*76 DAT_O[18]
*77 DAT_O[19]
*78 DAT_O[1]
*79 DAT_O[20]
*80 DAT_O[21]
*81 DAT_O[22]
*82 DAT_O[23]
*83 DAT_O[24]
*84 DAT_O[25]
*85 DAT_O[26]
*86 DAT_O[27]
*87 DAT_O[28]
*88 DAT_O[29]
*89 DAT_O[2]
*90 DAT_O[30]
*91 DAT_O[31]
*92 DAT_O[3]
*93 DAT_O[4]
*94 DAT_O[5]
*95 DAT_O[6]
*96 DAT_O[7]
*97 DAT_O[8]
*98 DAT_O[9]
*99 SEL_O[0]
*100 SEL_O[1]
*101 SEL_O[2]
*102 SEL_O[3]
*103 STB_O
*104 WE_O
*105 gpio_in[0]
*106 gpio_in[10]
*107 gpio_in[11]
*108 gpio_in[12]
*109 gpio_in[13]
*110 gpio_in[14]
*111 gpio_in[15]
*112 gpio_in[16]
*113 gpio_in[17]
*114 gpio_in[18]
*115 gpio_in[19]
*116 gpio_in[1]
*117 gpio_in[20]
*118 gpio_in[21]
*119 gpio_in[22]
*120 gpio_in[23]
*121 gpio_in[24]
*122 gpio_in[25]
*123 gpio_in[26]
*124 gpio_in[27]
*125 gpio_in[28]
*126 gpio_in[29]
*127 gpio_in[2]
*128 gpio_in[30]
*129 gpio_in[31]
*130 gpio_in[32]
*131 gpio_in[33]
*132 gpio_in[34]
*133 gpio_in[35]
*134 gpio_in[36]
*135 gpio_in[37]
*136 gpio_in[3]
*137 gpio_in[4]
*138 gpio_in[5]
*139 gpio_in[6]
*140 gpio_in[7]
*141 gpio_in[8]
*142 gpio_in[9]
*143 gpio_oeb[0]
*144 gpio_oeb[10]
*145 gpio_oeb[11]
*146 gpio_oeb[12]
*147 gpio_oeb[13]
*148 gpio_oeb[14]
*149 gpio_oeb[15]
*150 gpio_oeb[16]
*151 gpio_oeb[17]
*152 gpio_oeb[18]
*153 gpio_oeb[19]
*154 gpio_oeb[1]
*155 gpio_oeb[20]
*156 gpio_oeb[21]
*157 gpio_oeb[22]
*158 gpio_oeb[23]
*159 gpio_oeb[24]
*160 gpio_oeb[25]
*161 gpio_oeb[26]
*162 gpio_oeb[27]
*163 gpio_oeb[28]
*164 gpio_oeb[29]
*165 gpio_oeb[2]
*166 gpio_oeb[30]
*167 gpio_oeb[31]
*168 gpio_oeb[32]
*169 gpio_oeb[33]
*170 gpio_oeb[34]
*171 gpio_oeb[35]
*172 gpio_oeb[36]
*173 gpio_oeb[37]
*174 gpio_oeb[3]
*175 gpio_oeb[4]
*176 gpio_oeb[5]
*177 gpio_oeb[6]
*178 gpio_oeb[7]
*179 gpio_oeb[8]
*180 gpio_oeb[9]
*181 gpio_out[0]
*182 gpio_out[10]
*183 gpio_out[11]
*184 gpio_out[12]
*185 gpio_out[13]
*186 gpio_out[14]
*187 gpio_out[15]
*188 gpio_out[16]
*189 gpio_out[17]
*190 gpio_out[18]
*191 gpio_out[19]
*192 gpio_out[1]
*193 gpio_out[20]
*194 gpio_out[21]
*195 gpio_out[22]
*196 gpio_out[23]
*197 gpio_out[24]
*198 gpio_out[25]
*199 gpio_out[26]
*200 gpio_out[27]
*201 gpio_out[28]
*202 gpio_out[29]
*203 gpio_out[2]
*204 gpio_out[30]
*205 gpio_out[31]
*206 gpio_out[32]
*207 gpio_out[33]
*208 gpio_out[34]
*209 gpio_out[35]
*210 gpio_out[36]
*211 gpio_out[37]
*212 gpio_out[3]
*213 gpio_out[4]
*214 gpio_out[5]
*215 gpio_out[6]
*216 gpio_out[7]
*217 gpio_out[8]
*218 gpio_out[9]
*219 irq[0]
*220 irq[1]
*221 irq[2]
*222 la_data_in[0]
*223 la_data_in[10]
*224 la_data_in[11]
*225 la_data_in[12]
*226 la_data_in[13]
*227 la_data_in[14]
*228 la_data_in[15]
*229 la_data_in[16]
*230 la_data_in[17]
*231 la_data_in[18]
*232 la_data_in[19]
*233 la_data_in[1]
*234 la_data_in[20]
*235 la_data_in[21]
*236 la_data_in[22]
*237 la_data_in[23]
*238 la_data_in[24]
*239 la_data_in[25]
*240 la_data_in[26]
*241 la_data_in[27]
*242 la_data_in[28]
*243 la_data_in[29]
*244 la_data_in[2]
*245 la_data_in[30]
*246 la_data_in[31]
*247 la_data_in[3]
*248 la_data_in[4]
*249 la_data_in[5]
*250 la_data_in[6]
*251 la_data_in[7]
*252 la_data_in[8]
*253 la_data_in[9]
*254 la_data_out[0]
*255 la_data_out[10]
*256 la_data_out[11]
*257 la_data_out[12]
*258 la_data_out[13]
*259 la_data_out[14]
*260 la_data_out[15]
*261 la_data_out[16]
*262 la_data_out[17]
*263 la_data_out[18]
*264 la_data_out[19]
*265 la_data_out[1]
*266 la_data_out[20]
*267 la_data_out[21]
*268 la_data_out[22]
*269 la_data_out[23]
*270 la_data_out[24]
*271 la_data_out[25]
*272 la_data_out[26]
*273 la_data_out[27]
*274 la_data_out[28]
*275 la_data_out[29]
*276 la_data_out[2]
*277 la_data_out[30]
*278 la_data_out[31]
*279 la_data_out[3]
*280 la_data_out[4]
*281 la_data_out[5]
*282 la_data_out[6]
*283 la_data_out[7]
*284 la_data_out[8]
*285 la_data_out[9]
*286 la_oenb[0]
*287 la_oenb[10]
*288 la_oenb[11]
*289 la_oenb[12]
*290 la_oenb[13]
*291 la_oenb[14]
*292 la_oenb[15]
*293 la_oenb[16]
*294 la_oenb[17]
*295 la_oenb[18]
*296 la_oenb[19]
*297 la_oenb[1]
*298 la_oenb[20]
*299 la_oenb[21]
*300 la_oenb[22]
*301 la_oenb[23]
*302 la_oenb[24]
*303 la_oenb[25]
*304 la_oenb[26]
*305 la_oenb[27]
*306 la_oenb[28]
*307 la_oenb[29]
*308 la_oenb[2]
*309 la_oenb[30]
*310 la_oenb[31]
*311 la_oenb[3]
*312 la_oenb[4]
*313 la_oenb[5]
*314 la_oenb[6]
*315 la_oenb[7]
*316 la_oenb[8]
*317 la_oenb[9]
*320 wb_clk_i
*321 wb_rst_i
*322 wbs_ack_o
*323 wbs_adr_i[0]
*324 wbs_adr_i[10]
*325 wbs_adr_i[11]
*326 wbs_adr_i[12]
*327 wbs_adr_i[13]
*328 wbs_adr_i[14]
*329 wbs_adr_i[15]
*330 wbs_adr_i[16]
*331 wbs_adr_i[17]
*332 wbs_adr_i[18]
*333 wbs_adr_i[19]
*334 wbs_adr_i[1]
*335 wbs_adr_i[20]
*336 wbs_adr_i[21]
*337 wbs_adr_i[22]
*338 wbs_adr_i[23]
*339 wbs_adr_i[24]
*340 wbs_adr_i[25]
*341 wbs_adr_i[26]
*342 wbs_adr_i[27]
*343 wbs_adr_i[28]
*344 wbs_adr_i[29]
*345 wbs_adr_i[2]
*346 wbs_adr_i[30]
*347 wbs_adr_i[31]
*348 wbs_adr_i[3]
*349 wbs_adr_i[4]
*350 wbs_adr_i[5]
*351 wbs_adr_i[6]
*352 wbs_adr_i[7]
*353 wbs_adr_i[8]
*354 wbs_adr_i[9]
*355 wbs_cyc_i
*356 wbs_dat_i[0]
*357 wbs_dat_i[10]
*358 wbs_dat_i[11]
*359 wbs_dat_i[12]
*360 wbs_dat_i[13]
*361 wbs_dat_i[14]
*362 wbs_dat_i[15]
*363 wbs_dat_i[16]
*364 wbs_dat_i[17]
*365 wbs_dat_i[18]
*366 wbs_dat_i[19]
*367 wbs_dat_i[1]
*368 wbs_dat_i[20]
*369 wbs_dat_i[21]
*370 wbs_dat_i[22]
*371 wbs_dat_i[23]
*372 wbs_dat_i[24]
*373 wbs_dat_i[25]
*374 wbs_dat_i[26]
*375 wbs_dat_i[27]
*376 wbs_dat_i[28]
*377 wbs_dat_i[29]
*378 wbs_dat_i[2]
*379 wbs_dat_i[30]
*380 wbs_dat_i[31]
*381 wbs_dat_i[3]
*382 wbs_dat_i[4]
*383 wbs_dat_i[5]
*384 wbs_dat_i[6]
*385 wbs_dat_i[7]
*386 wbs_dat_i[8]
*387 wbs_dat_i[9]
*388 wbs_dat_o[0]
*389 wbs_dat_o[10]
*390 wbs_dat_o[11]
*391 wbs_dat_o[12]
*392 wbs_dat_o[13]
*393 wbs_dat_o[14]
*394 wbs_dat_o[15]
*395 wbs_dat_o[16]
*396 wbs_dat_o[17]
*397 wbs_dat_o[18]
*398 wbs_dat_o[19]
*399 wbs_dat_o[1]
*400 wbs_dat_o[20]
*401 wbs_dat_o[21]
*402 wbs_dat_o[22]
*403 wbs_dat_o[23]
*404 wbs_dat_o[24]
*405 wbs_dat_o[25]
*406 wbs_dat_o[26]
*407 wbs_dat_o[27]
*408 wbs_dat_o[28]
*409 wbs_dat_o[29]
*410 wbs_dat_o[2]
*411 wbs_dat_o[30]
*412 wbs_dat_o[31]
*413 wbs_dat_o[3]
*414 wbs_dat_o[4]
*415 wbs_dat_o[5]
*416 wbs_dat_o[6]
*417 wbs_dat_o[7]
*418 wbs_dat_o[8]
*419 wbs_dat_o[9]
*420 wbs_sel_i[0]
*421 wbs_sel_i[1]
*422 wbs_sel_i[2]
*423 wbs_sel_i[3]
*424 wbs_stb_i
*425 wbs_we_i
*426 _0000_
*427 _0001_
*428 _0002_
*429 _0003_
*430 _0004_
*431 _0005_
*432 _0006_
*433 _0007_
*434 _0008_
*435 _0009_
*436 _0010_
*437 _0011_
*438 _0012_
*439 _0013_
*440 _0014_
*441 _0015_
*442 _0016_
*443 _0017_
*444 _0018_
*445 _0019_
*446 _0020_
*447 _0021_
*448 _0022_
*449 _0023_
*450 _0024_
*451 _0025_
*452 _0026_
*453 _0027_
*454 _0028_
*455 _0029_
*456 _0030_
*457 _0031_
*458 _0032_
*459 _0033_
*460 _0034_
*461 _0035_
*462 _0036_
*463 _0037_
*464 _0038_
*465 _0039_
*466 _0040_
*467 _0041_
*468 _0042_
*469 _0043_
*470 _0044_
*471 _0045_
*472 _0046_
*473 _0047_
*474 _0048_
*475 _0049_
*476 _0050_
*477 _0051_
*478 _0052_
*479 _0053_
*480 _0054_
*481 _0055_
*482 _0056_
*483 _0057_
*484 _0058_
*485 _0059_
*486 _0060_
*487 _0061_
*488 _0062_
*489 _0063_
*490 _0064_
*491 _0065_
*492 _0066_
*493 _0067_
*494 _0068_
*495 _0069_
*496 _0070_
*497 _0071_
*498 _0072_
*499 _0073_
*500 _0074_
*501 _0075_
*502 _0076_
*503 _0077_
*504 _0078_
*505 _0079_
*506 _0080_
*507 _0081_
*508 _0082_
*509 _0083_
*510 _0084_
*511 _0085_
*512 _0086_
*513 _0087_
*514 _0088_
*515 _0089_
*516 _0090_
*517 _0091_
*518 _0092_
*519 _0093_
*520 _0094_
*521 _0095_
*522 _0096_
*523 _0097_
*524 _0098_
*525 _0099_
*526 _0100_
*527 _0101_
*528 _0102_
*529 _0103_
*530 _0104_
*531 _0105_
*532 _0106_
*533 _0107_
*534 _0108_
*535 _0109_
*536 _0110_
*537 _0111_
*538 _0112_
*539 _0113_
*540 _0114_
*541 _0115_
*542 _0116_
*543 _0117_
*544 _0118_
*545 _0119_
*546 _0120_
*547 _0121_
*548 _0122_
*549 _0123_
*550 _0124_
*551 _0125_
*552 _0126_
*553 _0127_
*554 _0128_
*555 _0129_
*556 _0130_
*557 _0131_
*558 _0132_
*559 _0133_
*560 _0134_
*561 _0135_
*562 _0136_
*563 _0137_
*564 _0138_
*565 _0139_
*566 _0140_
*567 _0141_
*568 _0142_
*569 _0143_
*570 _0144_
*571 _0145_
*572 _0146_
*573 _0147_
*574 _0148_
*575 _0149_
*576 _0150_
*577 _0151_
*578 _0152_
*579 _0153_
*580 _0154_
*581 _0155_
*582 _0156_
*583 _0157_
*584 _0158_
*585 _0159_
*586 _0160_
*587 _0161_
*588 _0162_
*589 _0163_
*590 _0164_
*591 _0165_
*592 _0166_
*593 _0167_
*594 _0168_
*595 _0169_
*596 _0170_
*597 _0171_
*598 _0172_
*599 _0173_
*600 _0174_
*601 _0175_
*602 _0176_
*603 _0177_
*604 _0178_
*605 _0179_
*606 _0180_
*607 _0181_
*608 _0182_
*609 _0183_
*610 _0184_
*611 _0185_
*612 _0186_
*613 _0187_
*614 _0188_
*615 _0189_
*616 _0190_
*617 _0191_
*618 _0192_
*619 _0193_
*620 _0194_
*621 _0195_
*622 _0196_
*623 _0197_
*624 _0198_
*625 _0199_
*626 _0200_
*627 _0201_
*628 _0202_
*629 _0203_
*630 _0204_
*631 _0205_
*632 _0206_
*633 _0207_
*634 _0208_
*635 _0209_
*636 _0210_
*637 _0211_
*638 _0212_
*639 _0213_
*640 _0214_
*641 _0215_
*642 _0216_
*643 _0217_
*644 _0218_
*645 _0219_
*646 _0220_
*647 _0221_
*648 _0222_
*649 _0223_
*650 _0224_
*651 _0225_
*652 _0226_
*653 _0227_
*654 _0228_
*655 _0229_
*656 _0230_
*657 _0231_
*658 _0232_
*659 _0233_
*660 _0234_
*661 _0235_
*662 _0236_
*663 _0237_
*664 _0238_
*665 _0239_
*666 _0240_
*667 _0241_
*668 _0242_
*669 _0243_
*670 _0244_
*671 _0245_
*672 _0246_
*673 _0247_
*674 _0248_
*675 _0249_
*676 _0250_
*677 _0251_
*678 _0252_
*679 _0253_
*680 _0254_
*681 _0255_
*682 _0256_
*683 _0257_
*684 _0258_
*685 _0259_
*686 _0260_
*687 _0261_
*688 _0262_
*689 _0263_
*690 _0264_
*691 _0265_
*692 _0266_
*693 _0267_
*694 _0268_
*695 _0269_
*696 _0270_
*697 _0271_
*698 _0272_
*699 _0273_
*700 _0274_
*701 _0275_
*702 _0276_
*703 _0277_
*704 _0278_
*705 _0279_
*706 _0280_
*707 _0281_
*708 _0282_
*709 _0283_
*710 _0284_
*711 _0285_
*712 _0286_
*713 _0287_
*714 _0288_
*715 _0289_
*716 _0290_
*717 _0291_
*718 _0292_
*719 _0293_
*720 _0294_
*721 _0295_
*722 _0296_
*723 _0297_
*724 _0298_
*725 _0299_
*726 _0300_
*727 _0301_
*728 _0302_
*729 _0303_
*730 _0304_
*731 _0305_
*732 _0306_
*733 _0307_
*734 _0308_
*735 _0309_
*736 _0310_
*737 _0311_
*738 _0312_
*739 _0313_
*740 _0314_
*741 _0315_
*742 _0316_
*743 _0317_
*744 _0318_
*745 _0319_
*746 _0320_
*747 _0321_
*748 _0322_
*749 _0323_
*750 _0324_
*751 _0325_
*752 _0326_
*753 _0327_
*754 _0328_
*755 _0329_
*756 _0330_
*757 _0331_
*758 _0332_
*759 _0333_
*760 _0334_
*761 _0335_
*762 _0336_
*763 _0337_
*764 _0338_
*765 _0339_
*766 _0340_
*767 _0341_
*768 _0342_
*769 _0343_
*770 _0344_
*771 _0345_
*772 _0346_
*773 _0347_
*774 _0348_
*775 _0349_
*776 _0350_
*777 _0351_
*778 _0352_
*779 _0353_
*780 _0354_
*781 _0355_
*782 _0356_
*783 _0357_
*784 _0358_
*785 _0359_
*786 _0360_
*787 _0361_
*788 _0362_
*789 _0363_
*790 _0364_
*791 _0365_
*792 _0366_
*793 _0367_
*794 _0368_
*795 _0369_
*796 _0370_
*797 _0371_
*798 _0372_
*799 _0373_
*800 _0374_
*801 _0375_
*802 _0376_
*803 _0377_
*804 _0378_
*805 _0379_
*806 _0380_
*807 _0381_
*808 _0382_
*809 _0383_
*810 _0384_
*811 _0385_
*812 _0386_
*813 _0387_
*814 _0388_
*815 _0389_
*816 _0390_
*817 _0391_
*818 _0392_
*819 _0393_
*820 _0394_
*821 _0395_
*822 _0396_
*823 _0397_
*824 _0398_
*825 _0399_
*826 _0400_
*827 _0401_
*828 _0402_
*829 _0403_
*830 _0404_
*831 _0405_
*832 _0406_
*833 _0407_
*834 _0408_
*835 _0409_
*836 _0410_
*837 _0411_
*838 _0412_
*839 _0413_
*840 _0414_
*841 _0415_
*842 _0416_
*843 _0417_
*844 _0418_
*845 _0419_
*846 _0420_
*847 _0421_
*848 _0422_
*849 _0423_
*850 _0424_
*851 _0425_
*852 _0426_
*853 _0427_
*854 _0428_
*855 _0429_
*856 _0430_
*857 _0431_
*858 _0432_
*859 _0433_
*860 _0434_
*861 _0435_
*862 _0436_
*863 _0437_
*864 _0438_
*865 _0439_
*866 _0440_
*867 _0441_
*868 _0442_
*869 _0443_
*870 _0444_
*871 _0445_
*872 _0446_
*873 _0447_
*874 _0448_
*875 _0449_
*876 _0450_
*877 _0451_
*878 _0452_
*879 _0453_
*880 _0454_
*881 _0455_
*882 _0456_
*883 _0457_
*884 _0458_
*885 _0459_
*886 _0460_
*887 _0461_
*888 _0462_
*889 _0463_
*890 _0464_
*891 _0465_
*892 _0466_
*893 _0467_
*894 _0468_
*895 _0469_
*896 _0470_
*897 _0471_
*898 _0472_
*899 _0473_
*900 _0474_
*901 _0475_
*902 _0476_
*903 _0477_
*904 _0478_
*905 _0479_
*906 _0480_
*907 _0481_
*908 _0482_
*909 _0483_
*910 _0484_
*911 _0485_
*912 _0486_
*913 _0487_
*914 _0488_
*915 _0489_
*916 _0490_
*917 _0491_
*918 _0492_
*919 _0493_
*920 _0494_
*921 _0495_
*922 _0496_
*923 _0497_
*924 _0498_
*925 _0499_
*926 _0500_
*927 _0501_
*928 _0502_
*929 _0503_
*930 _0504_
*931 _0505_
*932 _0506_
*933 _0507_
*934 _0508_
*935 _0509_
*936 _0510_
*937 _0511_
*938 _0512_
*939 _0513_
*940 _0514_
*941 _0515_
*942 _0516_
*943 _0517_
*944 _0518_
*945 _0519_
*946 _0520_
*947 _0521_
*948 _0522_
*949 _0523_
*950 _0524_
*951 _0525_
*952 _0526_
*953 _0527_
*954 _0528_
*955 _0529_
*956 _0530_
*957 _0531_
*958 _0532_
*959 _0533_
*960 _0534_
*961 _0535_
*962 _0536_
*963 _0537_
*964 _0538_
*965 _0539_
*966 _0540_
*967 _0541_
*968 _0542_
*969 _0543_
*970 _0544_
*971 _0545_
*972 _0546_
*973 _0547_
*974 _0548_
*975 _0549_
*976 _0550_
*977 _0551_
*978 _0552_
*979 _0553_
*980 _0554_
*981 _0555_
*982 _0556_
*983 _0557_
*984 _0558_
*985 _0559_
*986 _0560_
*987 _0561_
*988 _0562_
*989 _0563_
*990 _0564_
*991 _0565_
*992 _0566_
*993 _0567_
*994 _0568_
*995 _0569_
*996 _0570_
*997 _0571_
*998 _0572_
*999 _0573_
*1000 _0574_
*1001 _0575_
*1002 _0576_
*1003 _0577_
*1004 _0578_
*1005 _0579_
*1006 _0580_
*1007 _0581_
*1008 _0582_
*1009 _0583_
*1010 _0584_
*1011 _0585_
*1012 _0586_
*1013 _0587_
*1014 _0588_
*1015 _0589_
*1016 _0590_
*1017 _0591_
*1018 _0592_
*1019 _0593_
*1020 _0594_
*1021 _0595_
*1022 _0596_
*1023 _0597_
*1024 _0598_
*1025 _0599_
*1026 _0600_
*1027 _0601_
*1028 _0602_
*1029 _0603_
*1030 _0604_
*1031 _0605_
*1032 _0606_
*1033 _0607_
*1034 _0608_
*1035 _0609_
*1036 _0610_
*1037 _0611_
*1038 _0612_
*1039 _0613_
*1040 _0614_
*1041 _0615_
*1042 _0616_
*1043 _0617_
*1044 _0618_
*1045 _0619_
*1046 _0620_
*1047 _0621_
*1048 _0622_
*1049 _0623_
*1050 _0624_
*1051 _0625_
*1052 _0626_
*1053 _0627_
*1054 _0628_
*1055 _0629_
*1056 _0630_
*1057 _0631_
*1058 _0632_
*1059 _0633_
*1060 _0634_
*1061 _0635_
*1062 _0636_
*1063 _0637_
*1064 _0638_
*1065 _0639_
*1066 _0640_
*1067 _0641_
*1068 _0642_
*1069 _0643_
*1070 _0644_
*1071 _0645_
*1072 _0646_
*1073 _0647_
*1074 _0648_
*1075 _0649_
*1076 _0650_
*1077 _0651_
*1078 _0652_
*1079 _0653_
*1080 _0654_
*1081 _0655_
*1082 _0656_
*1083 _0657_
*1084 _0658_
*1085 _0659_
*1086 _0660_
*1087 _0661_
*1088 _0662_
*1089 _0663_
*1090 _0664_
*1091 _0665_
*1092 _0666_
*1093 _0667_
*1094 _0668_
*1095 _0669_
*1096 _0670_
*1097 _0671_
*1098 _0672_
*1099 _0673_
*1100 _0674_
*1101 _0675_
*1102 _0676_
*1103 _0677_
*1104 _0678_
*1105 _0679_
*1106 _0680_
*1107 _0681_
*1108 _0682_
*1109 _0683_
*1110 _0684_
*1111 _0685_
*1112 _0686_
*1113 _0687_
*1114 _0688_
*1115 _0689_
*1116 _0690_
*1117 _0691_
*1118 _0692_
*1119 _0693_
*1120 _0694_
*1121 _0695_
*1122 _0696_
*1123 _0697_
*1124 _0698_
*1125 _0699_
*1126 _0700_
*1127 _0701_
*1128 _0702_
*1129 _0703_
*1130 _0704_
*1131 _0705_
*1132 _0706_
*1133 _0707_
*1134 _0708_
*1135 _0709_
*1136 _0710_
*1137 _0711_
*1138 _0712_
*1139 _0713_
*1140 _0714_
*1141 _0715_
*1142 _0716_
*1143 _0717_
*1144 _0718_
*1145 _0719_
*1146 _0720_
*1147 _0721_
*1148 _0722_
*1149 _0723_
*1150 _0724_
*1151 _0725_
*1152 _0726_
*1153 _0727_
*1154 _0728_
*1155 _0729_
*1156 _0730_
*1157 _0731_
*1158 _0732_
*1159 _0733_
*1160 _0734_
*1161 _0735_
*1162 _0736_
*1163 _0737_
*1164 _0738_
*1165 _0739_
*1166 _0740_
*1167 _0741_
*1168 _0742_
*1169 _0743_
*1170 _0744_
*1171 _0745_
*1172 _0746_
*1173 _0747_
*1174 _0748_
*1175 _0749_
*1176 _0750_
*1177 _0751_
*1178 _0752_
*1179 _0753_
*1180 _0754_
*1181 _0755_
*1182 _0756_
*1183 _0757_
*1184 _0758_
*1185 _0759_
*1186 _0760_
*1187 _0761_
*1188 _0762_
*1189 _0763_
*1190 _0764_
*1191 _0765_
*1192 _0766_
*1193 _0767_
*1194 _0768_
*1195 _0769_
*1196 _0770_
*1197 _0771_
*1198 _0772_
*1199 _0773_
*1200 _0774_
*1201 _0775_
*1202 _0776_
*1203 _0777_
*1204 _0778_
*1205 _0779_
*1206 _0780_
*1207 _0781_
*1208 _0782_
*1209 _0783_
*1210 _0784_
*1211 _0785_
*1212 _0786_
*1213 _0787_
*1214 _0788_
*1215 _0789_
*1216 _0790_
*1217 _0791_
*1218 _0792_
*1219 _0793_
*1220 _0794_
*1221 _0795_
*1222 _0796_
*1223 _0797_
*1224 _0798_
*1225 _0799_
*1226 _0800_
*1227 _0801_
*1228 _0802_
*1229 _0803_
*1230 _0804_
*1231 _0805_
*1232 _0806_
*1233 _0807_
*1234 _0808_
*1235 _0809_
*1236 _0810_
*1237 _0811_
*1238 _0812_
*1239 _0813_
*1240 _0814_
*1241 _0815_
*1242 _0816_
*1243 _0817_
*1244 _0818_
*1245 _0819_
*1246 _0820_
*1247 _0821_
*1248 _0822_
*1249 _0823_
*1250 _0824_
*1251 _0825_
*1252 _0826_
*1253 _0827_
*1254 _0828_
*1255 _0829_
*1256 _0830_
*1257 _0831_
*1258 _0832_
*1259 _0833_
*1260 _0834_
*1261 _0835_
*1262 _0836_
*1263 _0837_
*1264 _0838_
*1265 _0839_
*1266 _0840_
*1267 _0841_
*1268 _0842_
*1269 _0843_
*1270 _0844_
*1271 _0845_
*1272 _0846_
*1273 _0847_
*1274 _0848_
*1275 _0849_
*1276 _0850_
*1277 _0851_
*1278 _0852_
*1279 _0853_
*1280 _0854_
*1281 _0855_
*1282 _0856_
*1283 _0857_
*1284 _0858_
*1285 _0859_
*1286 _0860_
*1287 _0861_
*1288 _0862_
*1289 _0863_
*1290 _0864_
*1291 _0865_
*1292 _0866_
*1293 _0867_
*1294 _0868_
*1295 _0869_
*1296 _0870_
*1297 _0871_
*1298 _0872_
*1299 _0873_
*1300 _0874_
*1301 _0875_
*1302 _0876_
*1303 _0877_
*1304 _0878_
*1305 _0879_
*1306 _0880_
*1307 _0881_
*1308 _0882_
*1309 _0883_
*1310 _0884_
*1311 _0885_
*1312 _0886_
*1313 _0887_
*1314 _0888_
*1315 _0889_
*1316 _0890_
*1317 _0891_
*1318 _0892_
*1319 _0893_
*1320 _0894_
*1321 _0895_
*1322 _0896_
*1323 _0897_
*1324 _0898_
*1325 _0899_
*1326 _0900_
*1327 _0901_
*1328 _0902_
*1329 _0903_
*1330 _0904_
*1331 _0905_
*1332 _0906_
*1333 _0907_
*1334 _0908_
*1335 _0909_
*1336 _0910_
*1337 _0911_
*1338 _0912_
*1339 _0913_
*1340 _0914_
*1341 _0915_
*1342 _0916_
*1343 _0917_
*1344 _0918_
*1345 _0919_
*1346 _0920_
*1347 _0921_
*1348 _0922_
*1349 _0923_
*1350 _0924_
*1351 _0925_
*1352 _0926_
*1353 _0927_
*1354 _0928_
*1355 _0929_
*1356 _0930_
*1357 _0931_
*1358 _0932_
*1359 _0933_
*1360 _0934_
*1361 _0935_
*1362 _0936_
*1363 _0937_
*1364 _0938_
*1365 _0939_
*1366 _0940_
*1367 _0941_
*1368 _0942_
*1369 _0943_
*1370 _0944_
*1371 _0945_
*1372 _0946_
*1373 _0947_
*1374 _0948_
*1375 _0949_
*1376 _0950_
*1377 _0951_
*1378 _0952_
*1379 _0953_
*1380 _0954_
*1381 _0955_
*1382 _0956_
*1383 _0957_
*1384 _0958_
*1385 _0959_
*1386 _0960_
*1387 _0961_
*1388 _0962_
*1389 _0963_
*1390 _0964_
*1391 _0965_
*1392 _0966_
*1393 _0967_
*1394 _0968_
*1395 _0969_
*1396 _0970_
*1397 _0971_
*1398 _0972_
*1399 _0973_
*1400 _0974_
*1401 _0975_
*1402 _0976_
*1403 _0977_
*1404 _0978_
*1405 _0979_
*1406 _0980_
*1407 _0981_
*1408 _0982_
*1409 _0983_
*1410 _0984_
*1411 _0985_
*1412 _0986_
*1413 _0987_
*1414 _0988_
*1415 _0989_
*1416 _0990_
*1417 _0991_
*1418 _0992_
*1419 _0993_
*1420 _0994_
*1421 _0995_
*1422 _0996_
*1423 _0997_
*1424 _0998_
*1425 _0999_
*1426 _1000_
*1427 _1001_
*1428 _1002_
*1429 _1003_
*1430 _1004_
*1431 _1005_
*1432 _1006_
*1433 _1007_
*1434 _1008_
*1435 _1009_
*1436 _1010_
*1437 _1011_
*1438 _1012_
*1439 _1013_
*1440 _1014_
*1441 _1015_
*1442 _1016_
*1443 _1017_
*1444 _1018_
*1445 _1019_
*1446 _1020_
*1447 _1021_
*1448 _1022_
*1449 _1023_
*1450 _1024_
*1451 _1025_
*1452 _1026_
*1453 _1027_
*1454 _1028_
*1455 _1029_
*1456 _1030_
*1457 _1031_
*1458 _1032_
*1459 _1033_
*1460 _1034_
*1461 _1035_
*1462 _1036_
*1463 _1037_
*1464 _1038_
*1465 _1039_
*1466 _1040_
*1467 _1041_
*1468 _1042_
*1469 _1043_
*1470 _1044_
*1471 _1045_
*1472 _1046_
*1473 _1047_
*1474 _1048_
*1475 _1049_
*1476 _1050_
*1477 _1051_
*1478 _1052_
*1479 _1053_
*1480 _1054_
*1481 _1055_
*1482 _1056_
*1483 _1057_
*1484 _1058_
*1485 _1059_
*1486 _1060_
*1487 _1061_
*1488 _1062_
*1489 _1063_
*1490 _1064_
*1491 _1065_
*1492 _1066_
*1493 _1067_
*1494 _1068_
*1495 _1069_
*1496 _1070_
*1497 _1071_
*1498 _1072_
*1499 _1073_
*1500 _1074_
*1501 _1075_
*1502 _1076_
*1503 _1077_
*1504 _1078_
*1505 _1079_
*1506 _1080_
*1507 _1081_
*1508 _1082_
*1509 _1083_
*1510 _1084_
*1511 _1085_
*1512 _1086_
*1513 _1087_
*1514 _1088_
*1515 _1089_
*1516 _1090_
*1517 _1091_
*1518 _1092_
*1519 _1093_
*1520 _1094_
*1521 _1095_
*1522 _1096_
*1523 _1097_
*1524 _1098_
*1525 _1099_
*1526 _1100_
*1527 _1101_
*1528 _1102_
*1529 _1103_
*1530 _1104_
*1531 _1105_
*1532 _1106_
*1533 _1107_
*1534 _1108_
*1535 _1109_
*1536 _1110_
*1537 _1111_
*1538 _1112_
*1539 _1113_
*1540 _1114_
*1541 _1115_
*1542 _1116_
*1543 _1117_
*1544 _1118_
*1545 _1119_
*1546 _1120_
*1547 _1121_
*1548 _1122_
*1549 _1123_
*1550 _1124_
*1551 _1125_
*1552 _1126_
*1553 _1127_
*1554 _1128_
*1555 _1129_
*1556 _1130_
*1557 _1131_
*1558 _1132_
*1559 _1133_
*1560 _1134_
*1561 _1135_
*1562 _1136_
*1563 _1137_
*1564 _1138_
*1565 _1139_
*1566 _1140_
*1567 _1141_
*1568 _1142_
*1569 _1143_
*1570 _1144_
*1571 _1145_
*1572 _1146_
*1573 _1147_
*1574 _1148_
*1575 _1149_
*1576 _1150_
*1577 _1151_
*1578 _1152_
*1579 _1153_
*1580 _1154_
*1581 _1155_
*1582 _1156_
*1583 _1157_
*1584 _1158_
*1585 _1159_
*1586 _1160_
*1587 _1161_
*1588 _1162_
*1589 _1163_
*1590 _1164_
*1591 _1165_
*1592 _1166_
*1593 _1167_
*1594 _1168_
*1595 _1169_
*1596 _1170_
*1597 _1171_
*1598 _1172_
*1599 _1173_
*1600 _1174_
*1601 _1175_
*1602 _1176_
*1603 _1177_
*1604 _1178_
*1605 _1179_
*1606 _1180_
*1607 _1181_
*1608 _1182_
*1609 _1183_
*1610 _1184_
*1611 _1185_
*1612 _1186_
*1613 _1187_
*1614 _1188_
*1615 _1189_
*1616 _1190_
*1617 _1191_
*1618 _1192_
*1619 _1193_
*1620 _1194_
*1621 _1195_
*1622 _1196_
*1623 _1197_
*1624 _1198_
*1625 _1199_
*1626 _1200_
*1627 _1201_
*1628 _1202_
*1629 _1203_
*1630 _1204_
*1631 _1205_
*1632 _1206_
*1633 _1207_
*1634 _1208_
*1635 _1209_
*1636 _1210_
*1637 _1211_
*1638 _1212_
*1639 _1213_
*1640 _1214_
*1641 _1215_
*1642 _1216_
*1643 _1217_
*1644 _1218_
*1645 _1219_
*1646 _1220_
*1647 _1221_
*1648 _1222_
*1649 _1223_
*1650 _1224_
*1651 _1225_
*1652 _1226_
*1653 _1227_
*1654 _1228_
*1655 _1229_
*1656 _1230_
*1657 _1231_
*1658 _1232_
*1659 _1233_
*1660 _1234_
*1661 _1235_
*1662 _1236_
*1663 _1237_
*1664 _1238_
*1665 _1239_
*1666 _1240_
*1667 _1241_
*1668 _1242_
*1669 _1243_
*1670 _1244_
*1671 _1245_
*1672 _1246_
*1673 _1247_
*1674 _1248_
*1675 _1249_
*1676 _1250_
*1677 _1251_
*1678 _1252_
*1679 _1253_
*1680 _1254_
*1681 _1255_
*1682 _1256_
*1683 _1257_
*1684 _1258_
*1685 _1259_
*1686 _1260_
*1687 _1261_
*1688 _1262_
*1689 _1263_
*1690 _1264_
*1691 _1265_
*1692 _1266_
*1693 _1267_
*1694 _1268_
*1695 _1269_
*1696 _1270_
*1697 _1271_
*1698 _1272_
*1699 _1273_
*1700 _1274_
*1701 _1275_
*1702 _1276_
*1703 _1277_
*1704 _1278_
*1705 _1279_
*1706 _1280_
*1707 _1281_
*1708 _1282_
*1709 _1283_
*1710 _1284_
*1711 _1285_
*1712 _1286_
*1713 _1287_
*1714 _1288_
*1715 _1289_
*1716 _1290_
*1717 _1291_
*1718 _1292_
*1719 _1293_
*1720 _1294_
*1721 _1295_
*1722 _1296_
*1723 _1297_
*1724 _1298_
*1725 _1299_
*1726 _1300_
*1727 _1301_
*1728 _1302_
*1729 _1303_
*1730 _1304_
*1731 _1305_
*1732 _1306_
*1733 _1307_
*1734 _1308_
*1735 _1309_
*1736 _1310_
*1737 _1311_
*1738 _1312_
*1739 _1313_
*1740 _1314_
*1741 _1315_
*1742 _1316_
*1743 _1317_
*1744 _1318_
*1745 _1319_
*1746 _1320_
*1747 _1321_
*1748 _1322_
*1749 _1323_
*1750 _1324_
*1751 _1325_
*1752 _1326_
*1753 _1327_
*1754 _1328_
*1755 _1329_
*1756 _1330_
*1757 _1331_
*1758 _1332_
*1759 _1333_
*1760 _1334_
*1761 _1335_
*1762 _1336_
*1763 _1337_
*1764 _1338_
*1765 _1339_
*1766 _1340_
*1767 _1341_
*1768 _1342_
*1769 _1343_
*1770 _1344_
*1771 _1345_
*1772 _1346_
*1773 _1347_
*1774 _1348_
*1775 _1349_
*1776 _1350_
*1777 _1351_
*1778 _1352_
*1779 _1353_
*1780 _1354_
*1781 _1355_
*1782 _1356_
*1783 _1357_
*1784 _1358_
*1785 _1359_
*1786 _1360_
*1787 _1361_
*1788 _1362_
*1789 _1363_
*1790 _1364_
*1791 _1365_
*1792 _1366_
*1793 _1367_
*1794 _1368_
*1795 _1369_
*1796 _1370_
*1797 _1371_
*1798 _1372_
*1799 _1373_
*1800 _1374_
*1801 _1375_
*1802 _1376_
*1803 _1377_
*1804 _1378_
*1805 _1379_
*1806 _1380_
*1807 _1381_
*1808 _1382_
*1809 _1383_
*1810 _1384_
*1811 _1385_
*1812 _1386_
*1813 _1387_
*1814 _1388_
*1815 _1389_
*1816 _1390_
*1817 _1391_
*1818 _1392_
*1819 _1393_
*1820 _1394_
*1821 _1395_
*1822 _1396_
*1823 _1397_
*1824 _1398_
*1825 _1399_
*1826 _1400_
*1827 _1401_
*1828 _1402_
*1829 _1403_
*1830 _1404_
*1831 _1405_
*1832 _1406_
*1833 _1407_
*1834 _1408_
*1835 _1409_
*1836 _1410_
*1837 _1411_
*1838 _1412_
*1839 _1413_
*1840 _1414_
*1841 _1415_
*1842 _1416_
*1843 _1417_
*1844 _1418_
*1845 _1419_
*1846 _1420_
*1847 _1421_
*1848 _1422_
*1849 _1423_
*1850 _1424_
*1851 _1425_
*1852 _1426_
*1853 _1427_
*1854 _1428_
*1855 _1429_
*1856 _1430_
*1857 _1431_
*1858 _1432_
*1859 _1433_
*1860 _1434_
*1861 _1435_
*1862 _1436_
*1863 _1437_
*1864 _1438_
*1865 _1439_
*1866 _1440_
*1867 _1441_
*1868 _1442_
*1869 _1443_
*1870 _1444_
*1871 _1445_
*1872 _1446_
*1873 _1447_
*1874 _1448_
*1875 _1449_
*1876 _1450_
*1877 _1451_
*1878 _1452_
*1879 _1453_
*1880 _1454_
*1881 _1455_
*1882 _1456_
*1883 _1457_
*1884 _1458_
*1885 _1459_
*1886 _1460_
*1887 _1461_
*1888 _1462_
*1889 _1463_
*1890 _1464_
*1891 _1465_
*1892 _1466_
*1893 _1467_
*1894 _1468_
*1895 _1469_
*1896 _1470_
*1897 _1471_
*1898 _1472_
*1899 _1473_
*1900 _1474_
*1901 _1475_
*1902 _1476_
*1903 _1477_
*1904 _1478_
*1905 _1479_
*1906 _1480_
*1907 _1481_
*1908 _1482_
*1909 _1483_
*1910 _1484_
*1911 _1485_
*1912 _1486_
*1913 _1487_
*1914 _1488_
*1915 _1489_
*1916 _1490_
*1917 _1491_
*1918 _1492_
*1919 _1493_
*1920 _1494_
*1921 _1495_
*1922 _1496_
*1923 _1497_
*1924 _1498_
*1925 _1499_
*1926 _1500_
*1927 _1501_
*1928 _1502_
*1929 _1503_
*1930 _1504_
*1931 _1505_
*1932 _1506_
*1933 _1507_
*1934 _1508_
*1935 _1509_
*1936 _1510_
*1937 _1511_
*1938 _1512_
*1939 _1513_
*1940 _1514_
*1941 _1515_
*1942 _1516_
*1943 _1517_
*1944 _1518_
*1945 _1519_
*1946 _1520_
*1947 _1521_
*1948 _1522_
*1949 _1523_
*1950 _1524_
*1951 _1525_
*1952 _1526_
*1953 _1527_
*1954 _1528_
*1955 _1529_
*1956 _1530_
*1957 _1531_
*1958 _1532_
*1959 _1533_
*1960 _1534_
*1961 _1535_
*1962 _1536_
*1963 _1537_
*1964 _1538_
*1965 _1539_
*1966 _1540_
*1967 _1541_
*1968 _1542_
*1969 _1543_
*1970 _1544_
*1971 _1545_
*1972 _1546_
*1973 _1547_
*1974 _1548_
*1975 _1549_
*1976 _1550_
*1977 _1551_
*1978 _1552_
*1979 _1553_
*1980 _1554_
*1981 _1555_
*1982 _1556_
*1983 _1557_
*1984 _1558_
*1985 _1559_
*1986 _1560_
*1987 _1561_
*1988 _1562_
*1989 _1563_
*1990 _1564_
*1991 _1565_
*1992 _1566_
*1993 _1567_
*1994 _1568_
*1995 _1569_
*1996 _1570_
*1997 _1571_
*1998 _1572_
*1999 _1573_
*2000 _1574_
*2001 _1575_
*2002 _1576_
*2003 _1577_
*2004 _1578_
*2005 _1579_
*2006 _1580_
*2007 _1581_
*2008 _1582_
*2009 _1583_
*2010 _1584_
*2011 _1585_
*2012 _1586_
*2013 _1587_
*2014 _1588_
*2015 _1589_
*2016 _1590_
*2017 _1591_
*2018 _1592_
*2019 _1593_
*2020 _1594_
*2021 _1595_
*2022 _1596_
*2023 _1597_
*2024 _1598_
*2025 _1599_
*2026 _1600_
*2027 _1601_
*2028 _1602_
*2029 _1603_
*2030 _1604_
*2031 _1605_
*2032 _1606_
*2033 _1607_
*2034 _1608_
*2035 _1609_
*2036 _1610_
*2037 _1611_
*2038 _1612_
*2039 _1613_
*2040 _1614_
*2041 _1615_
*2042 _1616_
*2043 _1617_
*2044 _1618_
*2045 _1619_
*2046 _1620_
*2047 _1621_
*2048 _1622_
*2049 _1623_
*2050 _1624_
*2051 _1625_
*2052 _1626_
*2053 _1627_
*2054 _1628_
*2055 _1629_
*2056 _1630_
*2057 _1631_
*2058 _1632_
*2059 _1633_
*2060 _1634_
*2061 _1635_
*2062 _1636_
*2063 _1637_
*2064 _1638_
*2065 _1639_
*2066 _1640_
*2067 _1641_
*2068 _1642_
*2069 _1643_
*2070 _1644_
*2071 _1645_
*2072 _1646_
*2073 _1647_
*2074 _1648_
*2075 _1649_
*2076 _1650_
*2077 _1651_
*2078 _1652_
*2079 _1653_
*2080 _1654_
*2081 _1655_
*2082 _1656_
*2083 _1657_
*2084 _1658_
*2085 _1659_
*2086 _1660_
*2087 _1661_
*2088 _1662_
*2089 _1663_
*2090 _1664_
*2091 _1665_
*2092 _1666_
*2093 _1667_
*2094 _1668_
*2095 _1669_
*2096 _1670_
*2097 _1671_
*2098 _1672_
*2099 _1673_
*2100 _1674_
*2101 _1675_
*2102 _1676_
*2103 _1677_
*2104 _1678_
*2105 _1679_
*2106 _1680_
*2107 _1681_
*2108 _1682_
*2109 _1683_
*2110 _1684_
*2111 _1685_
*2112 _1686_
*2113 _1687_
*2114 _1688_
*2115 _1689_
*2116 _1690_
*2117 _1691_
*2118 _1692_
*2119 _1693_
*2120 _1694_
*2121 _1695_
*2122 _1696_
*2123 _1697_
*2124 _1698_
*2125 _1699_
*2126 _1700_
*2127 _1701_
*2128 _1702_
*2129 _1703_
*2130 _1704_
*2131 _1705_
*2132 _1706_
*2133 _1707_
*2134 _1708_
*2135 _1709_
*2136 _1710_
*2137 _1711_
*2138 _1712_
*2139 _1713_
*2140 _1714_
*2141 _1715_
*2142 _1716_
*2143 _1717_
*2144 _1718_
*2145 _1719_
*2146 _1720_
*2147 _1721_
*2148 _1722_
*2149 _1723_
*2150 _1724_
*2151 _1725_
*2152 _1726_
*2153 _1727_
*2154 _1728_
*2155 _1729_
*2156 _1730_
*2157 _1731_
*2158 _1732_
*2159 _1733_
*2160 _1734_
*2161 _1735_
*2162 _1736_
*2163 _1737_
*2164 _1738_
*2165 _1739_
*2166 _1740_
*2167 _1741_
*2168 _1742_
*2169 _1743_
*2170 _1744_
*2171 _1745_
*2172 _1746_
*2173 _1747_
*2174 _1748_
*2175 _1749_
*2176 _1750_
*2177 _1751_
*2178 _1752_
*2179 _1753_
*2180 _1754_
*2181 _1755_
*2182 _1756_
*2183 _1757_
*2184 _1758_
*2185 _1759_
*2186 _1760_
*2187 _1761_
*2188 _1762_
*2189 _1763_
*2190 _1764_
*2191 _1765_
*2192 _1766_
*2193 _1767_
*2194 _1768_
*2195 _1769_
*2196 _1770_