*SPEF "ieee 1481-1999"
*DESIGN "sample_team_proj_Wrapper"
*DATE "17:14:12 Saturday August 24, 2024"
*VENDOR "The OpenROAD Project"
*PROGRAM "OpenROAD"
*VERSION "b16bda7e82721d10566ff7e2b68f1ff0be9f9e38"
*DESIGN_FLOW "NAME_SCOPE LOCAL" "PIN_CAP NONE"
*DIVIDER /
*DELIMITER :
*BUS_DELIMITER []
*T_UNIT 1 NS
*C_UNIT 1 PF
*R_UNIT 1 OHM
*L_UNIT 1 HENRY

*NAME_MAP
*1 ACK_I
*2 ADR_O[0]
*3 ADR_O[10]
*4 ADR_O[11]
*5 ADR_O[12]
*6 ADR_O[13]
*7 ADR_O[14]
*8 ADR_O[15]
*9 ADR_O[16]
*10 ADR_O[17]
*11 ADR_O[18]
*12 ADR_O[19]
*13 ADR_O[1]
*14 ADR_O[20]
*15 ADR_O[21]
*16 ADR_O[22]
*17 ADR_O[23]
*18 ADR_O[24]
*19 ADR_O[25]
*20 ADR_O[26]
*21 ADR_O[27]
*22 ADR_O[28]
*23 ADR_O[29]
*24 ADR_O[2]
*25 ADR_O[30]
*26 ADR_O[31]
*27 ADR_O[3]
*28 ADR_O[4]
*29 ADR_O[5]
*30 ADR_O[6]
*31 ADR_O[7]
*32 ADR_O[8]
*33 ADR_O[9]
*34 CYC_O
*35 DAT_I[0]
*36 DAT_I[10]
*37 DAT_I[11]
*38 DAT_I[12]
*39 DAT_I[13]
*40 DAT_I[14]
*41 DAT_I[15]
*42 DAT_I[16]
*43 DAT_I[17]
*44 DAT_I[18]
*45 DAT_I[19]
*46 DAT_I[1]
*47 DAT_I[20]
*48 DAT_I[21]
*49 DAT_I[22]
*50 DAT_I[23]
*51 DAT_I[24]
*52 DAT_I[25]
*53 DAT_I[26]
*54 DAT_I[27]
*55 DAT_I[28]
*56 DAT_I[29]
*57 DAT_I[2]
*58 DAT_I[30]
*59 DAT_I[31]
*60 DAT_I[3]
*61 DAT_I[4]
*62 DAT_I[5]
*63 DAT_I[6]
*64 DAT_I[7]
*65 DAT_I[8]
*66 DAT_I[9]
*67 DAT_O[0]
*68 DAT_O[10]
*69 DAT_O[11]
*70 DAT_O[12]
*71 DAT_O[13]
*72 DAT_O[14]
*73 DAT_O[15]
*74 DAT_O[16]
*75 DAT_O[17]
*76 DAT_O[18]
*77 DAT_O[19]
*78 DAT_O[1]
*79 DAT_O[20]
*80 DAT_O[21]
*81 DAT_O[22]
*82 DAT_O[23]
*83 DAT_O[24]
*84 DAT_O[25]
*85 DAT_O[26]
*86 DAT_O[27]
*87 DAT_O[28]
*88 DAT_O[29]
*89 DAT_O[2]
*90 DAT_O[30]
*91 DAT_O[31]
*92 DAT_O[3]
*93 DAT_O[4]
*94 DAT_O[5]
*95 DAT_O[6]
*96 DAT_O[7]
*97 DAT_O[8]
*98 DAT_O[9]
*99 SEL_O[0]
*100 SEL_O[1]
*101 SEL_O[2]
*102 SEL_O[3]
*103 STB_O
*104 WE_O
*105 gpio_in[0]
*106 gpio_in[10]
*107 gpio_in[11]
*108 gpio_in[12]
*109 gpio_in[13]
*110 gpio_in[14]
*111 gpio_in[15]
*112 gpio_in[16]
*113 gpio_in[17]
*114 gpio_in[18]
*115 gpio_in[19]
*116 gpio_in[1]
*117 gpio_in[20]
*118 gpio_in[21]
*119 gpio_in[22]
*120 gpio_in[23]
*121 gpio_in[24]
*122 gpio_in[25]
*123 gpio_in[26]
*124 gpio_in[27]
*125 gpio_in[28]
*126 gpio_in[29]
*127 gpio_in[2]
*128 gpio_in[30]
*129 gpio_in[31]
*130 gpio_in[32]
*131 gpio_in[33]
*132 gpio_in[34]
*133 gpio_in[35]
*134 gpio_in[36]
*135 gpio_in[37]
*136 gpio_in[3]
*137 gpio_in[4]
*138 gpio_in[5]
*139 gpio_in[6]
*140 gpio_in[7]
*141 gpio_in[8]
*142 gpio_in[9]
*143 gpio_oeb[0]
*144 gpio_oeb[10]
*145 gpio_oeb[11]
*146 gpio_oeb[12]
*147 gpio_oeb[13]
*148 gpio_oeb[14]
*149 gpio_oeb[15]
*150 gpio_oeb[16]
*151 gpio_oeb[17]
*152 gpio_oeb[18]
*153 gpio_oeb[19]
*154 gpio_oeb[1]
*155 gpio_oeb[20]
*156 gpio_oeb[21]
*157 gpio_oeb[22]
*158 gpio_oeb[23]
*159 gpio_oeb[24]
*160 gpio_oeb[25]
*161 gpio_oeb[26]
*162 gpio_oeb[27]
*163 gpio_oeb[28]
*164 gpio_oeb[29]
*165 gpio_oeb[2]
*166 gpio_oeb[30]
*167 gpio_oeb[31]
*168 gpio_oeb[32]
*169 gpio_oeb[33]
*170 gpio_oeb[34]
*171 gpio_oeb[35]
*172 gpio_oeb[36]
*173 gpio_oeb[37]
*174 gpio_oeb[3]
*175 gpio_oeb[4]
*176 gpio_oeb[5]
*177 gpio_oeb[6]
*178 gpio_oeb[7]
*179 gpio_oeb[8]
*180 gpio_oeb[9]
*181 gpio_out[0]
*182 gpio_out[10]
*183 gpio_out[11]
*184 gpio_out[12]
*185 gpio_out[13]
*186 gpio_out[14]
*187 gpio_out[15]
*188 gpio_out[16]
*189 gpio_out[17]
*190 gpio_out[18]
*191 gpio_out[19]
*192 gpio_out[1]
*193 gpio_out[20]
*194 gpio_out[21]
*195 gpio_out[22]
*196 gpio_out[23]
*197 gpio_out[24]
*198 gpio_out[25]
*199 gpio_out[26]
*200 gpio_out[27]
*201 gpio_out[28]
*202 gpio_out[29]
*203 gpio_out[2]
*204 gpio_out[30]
*205 gpio_out[31]
*206 gpio_out[32]
*207 gpio_out[33]
*208 gpio_out[34]
*209 gpio_out[35]
*210 gpio_out[36]
*211 gpio_out[37]
*212 gpio_out[3]
*213 gpio_out[4]
*214 gpio_out[5]
*215 gpio_out[6]
*216 gpio_out[7]
*217 gpio_out[8]
*218 gpio_out[9]
*219 irq[0]
*220 irq[1]
*221 irq[2]
*222 la_data_in[0]
*223 la_data_in[10]
*224 la_data_in[11]
*225 la_data_in[12]
*226 la_data_in[13]
*227 la_data_in[14]
*228 la_data_in[15]
*229 la_data_in[16]
*230 la_data_in[17]
*231 la_data_in[18]
*232 la_data_in[19]
*233 la_data_in[1]
*234 la_data_in[20]
*235 la_data_in[21]
*236 la_data_in[22]
*237 la_data_in[23]
*238 la_data_in[24]
*239 la_data_in[25]
*240 la_data_in[26]
*241 la_data_in[27]
*242 la_data_in[28]
*243 la_data_in[29]
*244 la_data_in[2]
*245 la_data_in[30]
*246 la_data_in[31]
*247 la_data_in[3]
*248 la_data_in[4]
*249 la_data_in[5]
*250 la_data_in[6]
*251 la_data_in[7]
*252 la_data_in[8]
*253 la_data_in[9]
*254 la_data_out[0]
*255 la_data_out[10]
*256 la_data_out[11]
*257 la_data_out[12]
*258 la_data_out[13]
*259 la_data_out[14]
*260 la_data_out[15]
*261 la_data_out[16]
*262 la_data_out[17]
*263 la_data_out[18]
*264 la_data_out[19]
*265 la_data_out[1]
*266 la_data_out[20]
*267 la_data_out[21]
*268 la_data_out[22]
*269 la_data_out[23]
*270 la_data_out[24]
*271 la_data_out[25]
*272 la_data_out[26]
*273 la_data_out[27]
*274 la_data_out[28]
*275 la_data_out[29]
*276 la_data_out[2]
*277 la_data_out[30]
*278 la_data_out[31]
*279 la_data_out[3]
*280 la_data_out[4]
*281 la_data_out[5]
*282 la_data_out[6]
*283 la_data_out[7]
*284 la_data_out[8]
*285 la_data_out[9]
*286 la_oenb[0]
*287 la_oenb[10]
*288 la_oenb[11]
*289 la_oenb[12]
*290 la_oenb[13]
*291 la_oenb[14]
*292 la_oenb[15]
*293 la_oenb[16]
*294 la_oenb[17]
*295 la_oenb[18]
*296 la_oenb[19]
*297 la_oenb[1]
*298 la_oenb[20]
*299 la_oenb[21]
*300 la_oenb[22]
*301 la_oenb[23]
*302 la_oenb[24]
*303 la_oenb[25]
*304 la_oenb[26]
*305 la_oenb[27]
*306 la_oenb[28]
*307 la_oenb[29]
*308 la_oenb[2]
*309 la_oenb[30]
*310 la_oenb[31]
*311 la_oenb[3]
*312 la_oenb[4]
*313 la_oenb[5]
*314 la_oenb[6]
*315 la_oenb[7]
*316 la_oenb[8]
*317 la_oenb[9]
*320 wb_clk_i
*321 wb_rst_i
*322 wbs_ack_o
*323 wbs_adr_i[0]
*324 wbs_adr_i[10]
*325 wbs_adr_i[11]
*326 wbs_adr_i[12]
*327 wbs_adr_i[13]
*328 wbs_adr_i[14]
*329 wbs_adr_i[15]
*330 wbs_adr_i[16]
*331 wbs_adr_i[17]
*332 wbs_adr_i[18]
*333 wbs_adr_i[19]
*334 wbs_adr_i[1]
*335 wbs_adr_i[20]
*336 wbs_adr_i[21]
*337 wbs_adr_i[22]
*338 wbs_adr_i[23]
*339 wbs_adr_i[24]
*340 wbs_adr_i[25]
*341 wbs_adr_i[26]
*342 wbs_adr_i[27]
*343 wbs_adr_i[28]
*344 wbs_adr_i[29]
*345 wbs_adr_i[2]
*346 wbs_adr_i[30]
*347 wbs_adr_i[31]
*348 wbs_adr_i[3]
*349 wbs_adr_i[4]
*350 wbs_adr_i[5]
*351 wbs_adr_i[6]
*352 wbs_adr_i[7]
*353 wbs_adr_i[8]
*354 wbs_adr_i[9]
*355 wbs_cyc_i
*356 wbs_dat_i[0]
*357 wbs_dat_i[10]
*358 wbs_dat_i[11]
*359 wbs_dat_i[12]
*360 wbs_dat_i[13]
*361 wbs_dat_i[14]
*362 wbs_dat_i[15]
*363 wbs_dat_i[16]
*364 wbs_dat_i[17]
*365 wbs_dat_i[18]
*366 wbs_dat_i[19]
*367 wbs_dat_i[1]
*368 wbs_dat_i[20]
*369 wbs_dat_i[21]
*370 wbs_dat_i[22]
*371 wbs_dat_i[23]
*372 wbs_dat_i[24]
*373 wbs_dat_i[25]
*374 wbs_dat_i[26]
*375 wbs_dat_i[27]
*376 wbs_dat_i[28]
*377 wbs_dat_i[29]
*378 wbs_dat_i[2]
*379 wbs_dat_i[30]
*380 wbs_dat_i[31]
*381 wbs_dat_i[3]
*382 wbs_dat_i[4]
*383 wbs_dat_i[5]
*384 wbs_dat_i[6]
*385 wbs_dat_i[7]
*386 wbs_dat_i[8]
*387 wbs_dat_i[9]
*388 wbs_dat_o[0]
*389 wbs_dat_o[10]
*390 wbs_dat_o[11]
*391 wbs_dat_o[12]
*392 wbs_dat_o[13]
*393 wbs_dat_o[14]
*394 wbs_dat_o[15]
*395 wbs_dat_o[16]
*396 wbs_dat_o[17]
*397 wbs_dat_o[18]
*398 wbs_dat_o[19]
*399 wbs_dat_o[1]
*400 wbs_dat_o[20]
*401 wbs_dat_o[21]
*402 wbs_dat_o[22]
*403 wbs_dat_o[23]
*404 wbs_dat_o[24]
*405 wbs_dat_o[25]
*406 wbs_dat_o[26]
*407 wbs_dat_o[27]
*408 wbs_dat_o[28]
*409 wbs_dat_o[29]
*410 wbs_dat_o[2]
*411 wbs_dat_o[30]
*412 wbs_dat_o[31]
*413 wbs_dat_o[3]
*414 wbs_dat_o[4]
*415 wbs_dat_o[5]
*416 wbs_dat_o[6]
*417 wbs_dat_o[7]
*418 wbs_dat_o[8]
*419 wbs_dat_o[9]
*420 wbs_sel_i[0]
*421 wbs_sel_i[1]
*422 wbs_sel_i[2]
*423 wbs_sel_i[3]
*424 wbs_stb_i
*425 wbs_we_i
*426 _0000_
*427 _0001_
*428 _0002_
*429 _0003_
*430 _0004_
*431 _0005_
*432 _0006_
*433 _0007_
*434 _0008_
*435 _0009_
*436 _0010_
*437 _0011_
*438 _0012_
*439 _0013_
*440 _0014_
*441 _0015_
*442 _0016_
*443 _0017_
*444 _0018_
*445 _0019_
*446 _0020_
*447 _0021_
*448 _0022_
*449 _0023_
*450 _0024_
*451 _0025_
*452 _0026_
*453 _0027_
*454 _0028_
*455 _0029_
*456 _0030_
*457 _0031_
*458 _0032_
*459 _0033_
*460 _0034_
*461 _0035_
*462 _0036_
*463 _0037_
*464 _0038_
*465 _0039_
*466 _0040_
*467 _0041_
*468 _0042_
*469 _0043_
*470 _0044_
*471 _0045_
*472 _0046_
*473 _0047_
*474 _0048_
*475 _0049_
*476 _0050_
*477 _0051_
*478 _0052_
*479 _0053_
*480 _0054_
*481 _0055_
*482 _0056_
*483 _0057_
*484 _0058_
*485 _0059_
*486 _0060_
*487 _0061_
*488 _0062_
*489 _0063_
*490 _0064_
*491 _0065_
*492 _0066_
*493 _0067_
*494 _0068_
*495 _0069_
*496 _0070_
*497 _0071_
*498 _0072_
*499 _0073_
*500 _0074_
*501 _0075_
*502 _0076_
*503 _0077_
*504 _0078_
*505 _0079_
*506 _0080_
*507 _0081_
*508 _0082_
*509 _0083_
*510 _0084_
*511 _0085_
*512 _0086_
*513 _0087_
*514 _0088_
*515 _0089_
*516 _0090_
*517 _0091_
*518 _0092_
*519 _0093_
*520 _0094_
*521 _0095_
*522 _0096_
*523 _0097_
*524 _0098_
*525 _0099_
*526 _0100_
*527 _0101_
*528 _0102_
*529 _0103_
*530 _0104_
*531 _0105_
*532 _0106_
*533 _0107_
*534 _0108_
*535 _0109_
*536 _0110_
*537 _0111_
*538 _0112_
*539 _0113_
*540 _0114_
*541 _0115_
*542 _0116_
*543 _0117_
*544 _0118_
*545 _0119_
*546 _0120_
*547 _0121_
*548 _0122_
*549 _0123_
*550 _0124_
*551 _0125_
*552 _0126_
*553 _0127_
*554 _0128_
*555 _0129_
*556 _0130_
*557 _0131_
*558 _0132_
*559 _0133_
*560 _0134_
*561 _0135_
*562 _0136_
*563 _0137_
*564 _0138_
*565 _0139_
*566 _0140_
*567 _0141_
*568 _0142_
*569 _0143_
*570 _0144_
*571 _0145_
*572 _0146_
*573 _0147_
*574 _0148_
*575 _0149_
*576 _0150_
*577 _0151_
*578 _0152_
*579 _0153_
*580 _0154_
*581 _0155_
*582 _0156_
*583 _0157_
*584 _0158_
*585 _0159_
*586 _0160_
*587 _0161_
*588 _0162_
*589 _0163_
*590 _0164_
*591 _0165_
*592 _0166_
*593 _0167_
*594 _0168_
*595 _0169_
*596 _0170_
*597 _0171_
*598 _0172_
*599 _0173_
*600 _0174_
*601 _0175_
*602 _0176_
*603 _0177_
*604 _0178_
*605 _0179_
*606 _0180_
*607 _0181_
*608 _0182_
*609 _0183_
*610 _0184_
*611 _0185_
*612 _0186_
*613 _0187_
*614 _0188_
*615 _0189_
*616 _0190_
*617 _0191_
*618 _0192_
*619 _0193_
*620 _0194_
*621 _0195_
*622 _0196_
*623 _0197_
*624 _0198_
*625 _0199_
*626 _0200_
*627 _0201_
*628 _0202_
*629 _0203_
*630 _0204_
*631 _0205_
*632 _0206_
*633 _0207_
*634 _0208_
*635 _0209_
*636 _0210_
*637 _0211_
*638 _0212_
*639 _0213_
*640 _0214_
*641 _0215_
*642 _0216_
*643 _0217_
*644 _0218_
*645 _0219_
*646 _0220_
*647 _0221_
*648 _0222_
*649 _0223_
*650 _0224_
*651 _0225_
*652 _0226_
*653 _0227_
*654 _0228_
*655 _0229_
*656 _0230_
*657 _0231_
*658 _0232_
*659 _0233_
*660 _0234_
*661 _0235_
*662 _0236_
*663 _0237_
*664 _0238_
*665 _0239_
*666 _0240_
*667 _0241_
*668 _0242_
*669 _0243_
*670 _0244_
*671 _0245_
*672 _0246_
*673 _0247_
*674 _0248_
*675 _0249_
*676 _0250_
*677 _0251_
*678 _0252_
*679 _0253_
*680 _0254_
*681 _0255_
*682 _0256_
*683 _0257_
*684 _0258_
*685 _0259_
*686 _0260_
*687 _0261_
*688 _0262_
*689 _0263_
*690 _0264_
*691 _0265_
*692 _0266_
*693 _0267_
*694 _0268_
*695 _0269_
*696 _0270_
*697 _0271_
*698 _0272_
*699 _0273_
*700 _0274_
*701 _0275_
*702 _0276_
*703 _0277_
*704 _0278_
*705 _0279_
*706 _0280_
*707 _0281_
*708 _0282_
*709 _0283_
*710 _0284_
*711 _0285_
*712 _0286_
*713 _0287_
*714 _0288_
*715 _0289_
*716 _0290_
*717 _0291_
*718 _0292_
*719 _0293_
*720 _0294_
*721 _0295_
*722 _0296_
*723 _0297_
*724 _0298_
*725 _0299_
*726 _0300_
*727 _0301_
*728 _0302_
*729 _0303_
*730 _0304_
*731 _0305_
*732 _0306_
*733 _0307_
*734 _0308_
*735 _0309_
*736 _0310_
*737 _0311_
*738 _0312_
*739 _0313_
*740 _0314_
*741 _0315_
*742 _0316_
*743 _0317_
*744 _0318_
*745 _0319_
*746 _0320_
*747 _0321_
*748 _0322_
*749 _0323_
*750 _0324_
*751 _0325_
*752 _0326_
*753 _0327_
*754 _0328_
*755 _0329_
*756 _0330_
*757 _0331_
*758 _0332_
*759 _0333_
*760 _0334_
*761 _0335_
*762 _0336_
*763 _0337_
*764 _0338_
*765 _0339_
*766 _0340_
*767 _0341_
*768 _0342_
*769 _0343_
*770 _0344_
*771 _0345_
*772 _0346_
*773 _0347_
*774 _0348_
*775 _0349_
*776 _0350_
*777 _0351_
*778 _0352_
*779 _0353_
*780 _0354_
*781 _0355_
*782 _0356_
*783 _0357_
*784 _0358_
*785 _0359_
*786 _0360_
*787 _0361_
*788 _0362_
*789 _0363_
*790 _0364_
*791 _0365_
*792 _0366_
*793 _0367_
*794 _0368_
*795 _0369_
*796 _0370_
*797 _0371_
*798 _0372_
*799 _0373_
*800 _0374_
*801 _0375_
*802 _0376_
*803 _0377_
*804 _0378_
*805 _0379_
*806 _0380_
*807 _0381_
*808 _0382_
*809 _0383_
*810 _0384_
*811 _0385_
*812 _0386_
*813 _0387_
*814 _0388_
*815 _0389_
*816 _0390_
*817 _0391_
*818 _0392_
*819 _0393_
*820 _0394_
*821 _0395_
*822 _0396_
*823 _0397_
*824 _0398_
*825 _0399_
*826 _0400_
*827 _0401_
*828 _0402_
*829 _0403_
*830 _0404_
*831 _0405_
*832 _0406_
*833 _0407_
*834 _0408_
*835 _0409_
*836 _0410_
*837 _0411_
*838 _0412_
*839 _0413_
*840 _0414_
*841 _0415_
*842 _0416_
*843 _0417_
*844 _0418_
*845 _0419_
*846 _0420_
*847 _0421_
*848 _0422_
*849 _0423_
*850 _0424_
*851 _0425_
*852 _0426_
*853 _0427_
*854 _0428_
*855 _0429_
*856 _0430_
*857 _0431_
*858 _0432_
*859 _0433_
*860 _0434_
*861 _0435_
*862 _0436_
*863 _0437_
*864 _0438_
*865 _0439_
*866 _0440_
*867 _0441_
*868 _0442_
*869 _0443_
*870 _0444_
*871 _0445_
*872 _0446_
*873 _0447_
*874 _0448_
*875 _0449_
*876 _0450_
*877 _0451_
*878 _0452_
*879 _0453_
*880 _0454_
*881 _0455_
*882 _0456_
*883 _0457_
*884 _0458_
*885 _0459_
*886 _0460_
*887 _0461_
*888 _0462_
*889 _0463_
*890 _0464_
*891 _0465_
*892 _0466_
*893 _0467_
*894 _0468_
*895 _0469_
*896 _0470_
*897 _0471_
*898 _0472_
*899 _0473_
*900 _0474_
*901 _0475_
*902 _0476_
*903 _0477_
*904 _0478_
*905 _0479_
*906 _0480_
*907 _0481_
*908 _0482_
*909 _0483_
*910 _0484_
*911 _0485_
*912 _0486_
*913 _0487_
*914 _0488_
*915 _0489_
*916 _0490_
*917 _0491_
*918 _0492_
*919 _0493_
*920 _0494_
*921 _0495_
*922 _0496_
*923 _0497_
*924 _0498_
*925 _0499_
*926 _0500_
*927 _0501_
*928 _0502_
*929 _0503_
*930 _0504_
*931 _0505_
*932 _0506_
*933 _0507_
*934 _0508_
*935 _0509_
*936 _0510_
*937 _0511_
*938 _0512_
*939 _0513_
*940 _0514_
*941 _0515_
*942 _0516_
*943 _0517_
*944 _0518_
*945 _0519_
*946 _0520_
*947 _0521_
*948 _0522_
*949 _0523_
*950 _0524_
*951 _0525_
*952 _0526_
*953 _0527_
*954 _0528_
*955 _0529_
*956 _0530_
*957 _0531_
*958 _0532_
*959 _0533_
*960 _0534_
*961 _0535_
*962 _0536_
*963 _0537_
*964 _0538_
*965 _0539_
*966 _0540_
*967 _0541_
*968 _0542_
*969 _0543_
*970 _0544_
*971 _0545_
*972 _0546_
*973 _0547_
*974 _0548_
*975 _0549_
*976 _0550_
*977 _0551_
*978 _0552_
*979 _0553_
*980 _0554_
*981 _0555_
*982 _0556_
*983 _0557_
*984 _0558_
*985 _0559_
*986 _0560_
*987 _0561_
*988 _0562_
*989 _0563_
*990 _0564_
*991 _0565_
*992 _0566_
*993 _0567_
*994 _0568_
*995 _0569_
*996 _0570_
*997 _0571_
*998 _0572_
*999 _0573_
*1000 _0574_
*1001 _0575_
*1002 _0576_
*1003 _0577_
*1004 _0578_
*1005 _0579_
*1006 _0580_
*1007 _0581_
*1008 _0582_
*1009 _0583_
*1010 _0584_
*1011 _0585_
*1012 _0586_
*1013 _0587_
*1014 _0588_
*1015 _0589_
*1016 _0590_
*1017 _0591_
*1018 _0592_
*1019 _0593_
*1020 _0594_
*1021 _0595_
*1022 _0596_
*1023 _0597_
*1024 _0598_
*1025 _0599_
*1026 _0600_
*1027 _0601_
*1028 _0602_
*1029 _0603_
*1030 _0604_
*1031 _0605_
*1032 _0606_
*1033 _0607_
*1034 _0608_
*1035 _0609_
*1036 _0610_
*1037 _0611_
*1038 _0612_
*1039 _0613_
*1040 _0614_
*1041 _0615_
*1042 _0616_
*1043 _0617_
*1044 _0618_
*1045 _0619_
*1046 _0620_
*1047 _0621_
*1048 _0622_
*1049 _0623_
*1050 _0624_
*1051 _0625_
*1052 _0626_
*1053 _0627_
*1054 _0628_
*1055 _0629_
*1056 _0630_
*1057 _0631_
*1058 _0632_
*1059 _0633_
*1060 _0634_
*1061 _0635_
*1062 _0636_
*1063 _0637_
*1064 _0638_
*1065 _0639_
*1066 _0640_
*1067 _0641_
*1068 _0642_
*1069 _0643_
*1070 _0644_
*1071 _0645_
*1072 _0646_
*1073 _0647_
*1074 _0648_
*1075 _0649_
*1076 _0650_
*1077 _0651_
*1078 _0652_
*1079 _0653_
*1080 _0654_
*1081 _0655_
*1082 _0656_
*1083 _0657_
*1084 _0658_
*1085 _0659_
*1086 _0660_
*1087 _0661_
*1088 _0662_
*1089 _0663_
*1090 _0664_
*1091 _0665_
*1092 _0666_
*1093 _0667_
*1094 _0668_
*1095 _0669_
*1096 _0670_
*1097 _0671_
*1098 _0672_
*1099 _0673_
*1100 _0674_
*1101 _0675_
*1102 _0676_
*1103 _0677_
*1104 _0678_
*1105 _0679_
*1106 _0680_
*1107 _0681_
*1108 _0682_
*1109 _0683_
*1110 _0684_
*1111 _0685_
*1112 _0686_
*1113 _0687_
*1114 _0688_
*1115 _0689_
*1116 _0690_
*1117 _0691_
*1118 _0692_
*1119 _0693_
*1120 _0694_
*1121 _0695_
*1122 _0696_
*1123 _0697_
*1124 _0698_
*1125 _0699_
*1126 _0700_
*1127 _0701_
*1128 _0702_
*1129 _0703_
*1130 _0704_
*1131 _0705_
*1132 _0706_
*1133 _0707_
*1134 _0708_
*1135 _0709_
*1136 _0710_
*1137 _0711_
*1138 _0712_
*1139 _0713_
*1140 _0714_
*1141 _0715_
*1142 _0716_
*1143 _0717_
*1144 _0718_
*1145 _0719_
*1146 _0720_
*1147 _0721_
*1148 _0722_
*1149 _0723_
*1150 _0724_
*1151 _0725_
*1152 _0726_
*1153 _0727_
*1154 _0728_
*1155 _0729_
*1156 _0730_
*1157 _0731_
*1158 _0732_
*1159 _0733_
*1160 _0734_
*1161 _0735_
*1162 _0736_
*1163 _0737_
*1164 _0738_
*1165 _0739_
*1166 _0740_
*1167 _0741_
*1168 _0742_
*1169 _0743_
*1170 _0744_
*1171 _0745_
*1172 _0746_
*1173 _0747_
*1174 _0748_
*1175 _0749_
*1176 _0750_
*1177 _0751_
*1178 _0752_
*1179 _0753_
*1180 _0754_
*1181 _0755_
*1182 _0756_
*1183 _0757_
*1184 _0758_
*1185 _0759_
*1186 _0760_
*1187 _0761_
*1188 _0762_
*1189 _0763_
*1190 _0764_
*1191 _0765_
*1192 _0766_
*1193 _0767_
*1194 _0768_
*1195 _0769_
*1196 _0770_
*1197 _0771_
*1198 _0772_
*1199 _0773_
*1200 _0774_
*1201 _0775_
*1202 _0776_
*1203 _0777_
*1204 _0778_
*1205 clknet_0_wb_clk_i
*1206 clknet_2_0__leaf_wb_clk_i
*1207 clknet_2_1__leaf_wb_clk_i
*1208 clknet_2_2__leaf_wb_clk_i
*1209 clknet_2_3__leaf_wb_clk_i
*1210 net1
*1211 net10
*1212 net100
*1213 net101
*1214 net102
*1215 net103
*1216 net104
*1217 net105
*1218 net106
*1219 net107
*1220 net108
*1221 net109
*1222 net11
*1223 net110
*1224 net111
*1225 net112
*1226 net113
*1227 net114
*1228 net115
*1229 net116
*1230 net117
*1231 net118
*1232 net119
*1233 net12
*1234 net120
*1235 net121
*1236 net122
*1237 net123
*1238 net124
*1239 net125
*1240 net126
*1241 net127
*1242 net128
*1243 net129
*1244 net13
*1245 net130
*1246 net131
*1247 net132
*1248 net133
*1249 net134
*1250 net135
*1251 net136
*1252 net137
*1253 net138
*1254 net139
*1255 net14
*1256 net140
*1257 net141
*1258 net142
*1259 net143
*1260 net144
*1261 net145
*1262 net146
*1263 net147
*1264 net148
*1265 net149
*1266 net15
*1267 net150
*1268 net151
*1269 net152
*1270 net153
*1271 net154
*1272 net155
*1273 net156
*1274 net157
*1275 net158
*1276 net159
*1277 net16
*1278 net160
*1279 net161
*1280 net162
*1281 net163
*1282 net164
*1283 net165
*1284 net166
*1285 net167
*1286 net168
*1287 net169
*1288 net17
*1289 net170
*1290 net171
*1291 net172
*1292 net173
*1293 net174
*1294 net175
*1295 net176
*1296 net177
*1297 net178
*1298 net179
*1299 net18
*1300 net180
*1301 net181
*1302 net182
*1303 net183
*1304 net184
*1305 net185
*1306 net186
*1307 net187
*1308 net188
*1309 net189
*1310 net19
*1311 net190
*1312 net191
*1313 net192
*1314 net193
*1315 net194
*1316 net195
*1317 net196
*1318 net197
*1319 net198
*1320 net199
*1321 net2
*1322 net20
*1323 net200
*1324 net201
*1325 net202
*1326 net203
*1327 net204
*1328 net205
*1329 net206
*1330 net207
*1331 net208
*1332 net209
*1333 net21
*1334 net210
*1335 net211
*1336 net212
*1337 net213
*1338 net214
*1339 net215
*1340 net216
*1341 net217
*1342 net218
*1343 net219
*1344 net22
*1345 net220
*1346 net221
*1347 net222
*1348 net223
*1349 net224
*1350 net225
*1351 net226
*1352 net227
*1353 net228
*1354 net229
*1355 net23
*1356 net230
*1357 net231
*1358 net232
*1359 net233
*1360 net234
*1361 net235
*1362 net236
*1363 net237
*1364 net238
*1365 net239
*1366 net24
*1367 net240
*1368 net241
*1369 net242
*1370 net243
*1371 net244
*1372 net245
*1373 net246
*1374 net247
*1375 net248
*1376 net249
*1377 net25
*1378 net250
*1379 net251
*1380 net252
*1381 net253
*1382 net254
*1383 net255
*1384 net256
*1385 net257
*1386 net258
*1387 net259
*1388 net26
*1389 net260
*1390 net261
*1391 net262
*1392 net263
*1393 net264
*1394 net265
*1395 net266
*1396 net267
*1397 net268
*1398 net269
*1399 net27
*1400 net270
*1401 net271
*1402 net272
*1403 net273
*1404 net274
*1405 net275
*1406 net276
*1407 net277
*1408 net278
*1409 net279
*1410 net28
*1411 net280
*1412 net281
*1413 net282
*1414 net283
*1415 net284
*1416 net285
*1417 net286
*1418 net287
*1419 net288
*1420 net289
*1421 net29
*1422 net290
*1423 net291
*1424 net292
*1425 net293
*1426 net294
*1427 net295
*1428 net296
*1429 net297
*1430 net298
*1431 net299
*1432 net3
*1433 net30
*1434 net300
*1435 net301
*1436 net302
*1437 net303
*1438 net304
*1439 net305
*1440 net306
*1441 net307
*1442 net308
*1443 net309
*1444 net31
*1445 net310
*1446 net311
*1447 net312
*1448 net313
*1449 net314
*1450 net315
*1451 net316
*1452 net317
*1453 net318
*1454 net319
*1455 net32
*1456 net320
*1457 net321
*1458 net322
*1459 net323
*1460 net324
*1461 net325
*1462 net326
*1463 net327
*1464 net328
*1465 net329
*1466 net33
*1467 net330
*1468 net331
*1469 net332
*1470 net333
*1471 net334
*1472 net335
*1473 net336
*1474 net337
*1475 net338
*1476 net339
*1477 net34
*1478 net340
*1479 net341
*1480 net342
*1481 net343
*1482 net344
*1483 net345
*1484 net346
*1485 net347
*1486 net348
*1487 net349
*1488 net35
*1489 net350
*1490 net351
*1491 net36
*1492 net37
*1493 net38
*1494 net39
*1495 net4
*1496 net40
*1497 net41
*1498 net42
*1499 net43
*1500 net44
*1501 net45
*1502 net46
*1503 net47
*1504 net48
*1505 net49
*1506 net5
*1507 net50
*1508 net51
*1509 net52
*1510 net53
*1511 net54
*1512 net55
*1513 net56
*1514 net57
*1515 net58
*1516 net59
*1517 net6
*1518 net60
*1519 net61
*1520 net62
*1521 net63
*1522 net64
*1523 net65
*1524 net66
*1525 net67
*1526 net68
*1527 net69
*1528 net7
*1529 net70
*1530 net71
*1531 net72
*1532 net73
*1533 net74
*1534 net75
*1535 net76
*1536 net77
*1537 net78
*1538 net79
*1539 net8
*1540 net80
*1541 net81
*1542 net82
*1543 net83
*1544 net84
*1545 net85
*1546 net86
*1547 net87
*1548 net88
*1549 net89
*1550 net9
*1551 net90
*1552 net91
*1553 net92
*1554 net93
*1555 net94
*1556 net95
*1557 net96
*1558 net97
*1559 net98
*1560 net99
*1561 sample_team_proj_WB\.DONE_ASSERT
*1562 sample_team_proj_WB\.EN_VAL_REG
*1563 sample_team_proj_WB\.IC_REG
*1564 sample_team_proj_WB\.IM_REG
*1565 sample_team_proj_WB\.IRQ
*1566 sample_team_proj_WB\.PRESCALER_VAL_REG\[0\]
*1567 sample_team_proj_WB\.PRESCALER_VAL_REG\[10\]
*1568 sample_team_proj_WB\.PRESCALER_VAL_REG\[11\]
*1569 sample_team_proj_WB\.PRESCALER_VAL_REG\[12\]
*1570 sample_team_proj_WB\.PRESCALER_VAL_REG\[13\]
*1571 sample_team_proj_WB\.PRESCALER_VAL_REG\[1\]
*1572 sample_team_proj_WB\.PRESCALER_VAL_REG\[2\]
*1573 sample_team_proj_WB\.PRESCALER_VAL_REG\[3\]
*1574 sample_team_proj_WB\.PRESCALER_VAL_REG\[4\]
*1575 sample_team_proj_WB\.PRESCALER_VAL_REG\[5\]
*1576 sample_team_proj_WB\.PRESCALER_VAL_REG\[6\]
*1577 sample_team_proj_WB\.PRESCALER_VAL_REG\[7\]
*1578 sample_team_proj_WB\.PRESCALER_VAL_REG\[8\]
*1579 sample_team_proj_WB\.PRESCALER_VAL_REG\[9\]
*1580 sample_team_proj_WB\.RIS_REG
*1581 sample_team_proj_WB\.instance_to_wrap\.clk_divider\.count_out\[0\]
*1582 sample_team_proj_WB\.instance_to_wrap\.clk_divider\.count_out\[10\]
*1583 sample_team_proj_WB\.instance_to_wrap\.clk_divider\.count_out\[11\]
*1584 sample_team_proj_WB\.instance_to_wrap\.clk_divider\.count_out\[12\]
*1585 sample_team_proj_WB\.instance_to_wrap\.clk_divider\.count_out\[13\]
*1586 sample_team_proj_WB\.instance_to_wrap\.clk_divider\.count_out\[14\]
*1587 sample_team_proj_WB\.instance_to_wrap\.clk_divider\.count_out\[15\]
*1588 sample_team_proj_WB\.instance_to_wrap\.clk_divider\.count_out\[16\]
*1589 sample_team_proj_WB\.instance_to_wrap\.clk_divider\.count_out\[17\]
*1590 sample_team_proj_WB\.instance_to_wrap\.clk_divider\.count_out\[18\]
*1591 sample_team_proj_WB\.instance_to_wrap\.clk_divider\.count_out\[19\]
*1592 sample_team_proj_WB\.instance_to_wrap\.clk_divider\.count_out\[1\]
*1593 sample_team_proj_WB\.instance_to_wrap\.clk_divider\.count_out\[20\]
*1594 sample_team_proj_WB\.instance_to_wrap\.clk_divider\.count_out\[21\]
*1595 sample_team_proj_WB\.instance_to_wrap\.clk_divider\.count_out\[22\]
*1596 sample_team_proj_WB\.instance_to_wrap\.clk_divider\.count_out\[23\]
*1597 sample_team_proj_WB\.instance_to_wrap\.clk_divider\.count_out\[24\]
*1598 sample_team_proj_WB\.instance_to_wrap\.clk_divider\.count_out\[25\]
*1599 sample_team_proj_WB\.instance_to_wrap\.clk_divider\.count_out\[26\]
*1600 sample_team_proj_WB\.instance_to_wrap\.clk_divider\.count_out\[27\]
*1601 sample_team_proj_WB\.instance_to_wrap\.clk_divider\.count_out\[2\]
*1602 sample_team_proj_WB\.instance_to_wrap\.clk_divider\.count_out\[3\]
*1603 sample_team_proj_WB\.instance_to_wrap\.clk_divider\.count_out\[4\]
*1604 sample_team_proj_WB\.instance_to_wrap\.clk_divider\.count_out\[5\]
*1605 sample_team_proj_WB\.instance_to_wrap\.clk_divider\.count_out\[6\]
*1606 sample_team_proj_WB\.instance_to_wrap\.clk_divider\.count_out\[7\]
*1607 sample_team_proj_WB\.instance_to_wrap\.clk_divider\.count_out\[8\]
*1608 sample_team_proj_WB\.instance_to_wrap\.clk_divider\.count_out\[9\]
*1609 sample_team_proj_WB\.instance_to_wrap\.clk_divider\.next_count\[0\]
*1610 sample_team_proj_WB\.instance_to_wrap\.clk_divider\.next_count\[10\]
*1611 sample_team_proj_WB\.instance_to_wrap\.clk_divider\.next_count\[11\]
*1612 sample_team_proj_WB\.instance_to_wrap\.clk_divider\.next_count\[12\]
*1613 sample_team_proj_WB\.instance_to_wrap\.clk_divider\.next_count\[13\]
*1614 sample_team_proj_WB\.instance_to_wrap\.clk_divider\.next_count\[14\]
*1615 sample_team_proj_WB\.instance_to_wrap\.clk_divider\.next_count\[15\]
*1616 sample_team_proj_WB\.instance_to_wrap\.clk_divider\.next_count\[16\]
*1617 sample_team_proj_WB\.instance_to_wrap\.clk_divider\.next_count\[17\]
*1618 sample_team_proj_WB\.instance_to_wrap\.clk_divider\.next_count\[18\]
*1619 sample_team_proj_WB\.instance_to_wrap\.clk_divider\.next_count\[19\]
*1620 sample_team_proj_WB\.instance_to_wrap\.clk_divider\.next_count\[1\]
*1621 sample_team_proj_WB\.instance_to_wrap\.clk_divider\.next_count\[20\]
*1622 sample_team_proj_WB\.instance_to_wrap\.clk_divider\.next_count\[21\]
*1623 sample_team_proj_WB\.instance_to_wrap\.clk_divider\.next_count\[22\]
*1624 sample_team_proj_WB\.instance_to_wrap\.clk_divider\.next_count\[23\]
*1625 sample_team_proj_WB\.instance_to_wrap\.clk_divider\.next_count\[24\]
*1626 sample_team_proj_WB\.instance_to_wrap\.clk_divider\.next_count\[25\]
*1627 sample_team_proj_WB\.instance_to_wrap\.clk_divider\.next_count\[26\]
*1628 sample_team_proj_WB\.instance_to_wrap\.clk_divider\.next_count\[27\]
*1629 sample_team_proj_WB\.instance_to_wrap\.clk_divider\.next_count\[2\]
*1630 sample_team_proj_WB\.instance_to_wrap\.clk_divider\.next_count\[3\]
*1631 sample_team_proj_WB\.instance_to_wrap\.clk_divider\.next_count\[4\]
*1632 sample_team_proj_WB\.instance_to_wrap\.clk_divider\.next_count\[5\]
*1633 sample_team_proj_WB\.instance_to_wrap\.clk_divider\.next_count\[6\]
*1634 sample_team_proj_WB\.instance_to_wrap\.clk_divider\.next_count\[7\]
*1635 sample_team_proj_WB\.instance_to_wrap\.clk_divider\.next_count\[8\]
*1636 sample_team_proj_WB\.instance_to_wrap\.clk_divider\.next_count\[9\]
*1637 sample_team_proj_WB\.instance_to_wrap\.clk_divider\.next_flag
*1638 sample_team_proj_WB\.instance_to_wrap\.clk_divider\.rollover_flag
*1639 sample_team_proj_WB\.instance_to_wrap\.count\[0\]
*1640 sample_team_proj_WB\.instance_to_wrap\.count\[1\]
*1641 sample_team_proj_WB\.instance_to_wrap\.count\[2\]
*1642 sample_team_proj_WB\.instance_to_wrap\.count\[3\]
*1643 sample_team_proj_WB\.instance_to_wrap\.count\[4\]
*1644 sample_team_proj_WB\.instance_to_wrap\.count\[5\]
*1645 sample_team_proj_WB\.instance_to_wrap\.counter_to_35\.next_count\[0\]
*1646 sample_team_proj_WB\.instance_to_wrap\.counter_to_35\.next_count\[1\]
*1647 sample_team_proj_WB\.instance_to_wrap\.counter_to_35\.next_count\[2\]
*1648 sample_team_proj_WB\.instance_to_wrap\.counter_to_35\.next_count\[3\]
*1649 sample_team_proj_WB\.instance_to_wrap\.counter_to_35\.next_count\[4\]
*1650 sample_team_proj_WB\.instance_to_wrap\.counter_to_35\.next_count\[5\]
*1651 sample_team_proj_WB\.instance_to_wrap\.counter_to_35\.next_flag
*1652 ANTENNA_1
*1653 ANTENNA_2
*1654 ANTENNA__0779__A
*1655 ANTENNA__0781__A
*1656 ANTENNA__0782__A
*1657 ANTENNA__0782__Y
*1658 ANTENNA__0783__Y
*1659 ANTENNA__0792__A
*1660 ANTENNA__0793__A
*1661 ANTENNA__0794__A
*1662 ANTENNA__0794__C
*1663 ANTENNA__0794__Y
*1664 ANTENNA__0795__C
*1665 ANTENNA__0795__D
*1666 ANTENNA__0798__A
*1667 ANTENNA__0799__B
*1668 ANTENNA__0802__B
*1669 ANTENNA__0802__D
*1670 ANTENNA__0803__D
*1671 ANTENNA__0804__A
*1672 ANTENNA__0804__C_N
*1673 ANTENNA__0804__X
*1674 ANTENNA__0805__D
*1675 ANTENNA__0805__X
*1676 ANTENNA__0806__B
*1677 ANTENNA__0807__A
*1678 ANTENNA__0807__B
*1679 ANTENNA__0807__D
*1680 ANTENNA__0808__A1
*1681 ANTENNA__0809__A
*1682 ANTENNA__0809__B
*1683 ANTENNA__0810__A
*1684 ANTENNA__0812__A0
*1685 ANTENNA__0813__A0
*1686 ANTENNA__0813__S
*1687 ANTENNA__0814__A0
*1688 ANTENNA__0814__S
*1689 ANTENNA__0815__A0
*1690 ANTENNA__0815__S
*1691 ANTENNA__0816__A0
*1692 ANTENNA__0816__S
*1693 ANTENNA__0817__A0
*1694 ANTENNA__0817__S
*1695 ANTENNA__0818__A1
*1696 ANTENNA__0818__S
*1697 ANTENNA__0819__A0
*1698 ANTENNA__0820__S
*1699 ANTENNA__0821__A0
*1700 ANTENNA__0821__S
*1701 ANTENNA__0822__A0
*1702 ANTENNA__0822__S
*1703 ANTENNA__0823__A0
*1704 ANTENNA__0824__A0
*1705 ANTENNA__0824__S
*1706 ANTENNA__0826__A
*1707 ANTENNA__0826__B
*1708 ANTENNA__0827__B_N
*1709 ANTENNA__0827__X
*1710 ANTENNA__0828__A
*1711 ANTENNA__0829__A
*1712 ANTENNA__0829__C
*1713 ANTENNA__0832__B
*1714 ANTENNA__0832__X
*1715 ANTENNA__0833__B
*1716 ANTENNA__0834__A
*1717 ANTENNA__0834__X
*1718 ANTENNA__0835__A3
*1719 ANTENNA__0835__A4
*1720 ANTENNA__0836__C
*1721 ANTENNA__0836__X
*1722 ANTENNA__0838__B
*1723 ANTENNA__0838__C
*1724 ANTENNA__0844__A1
*1725 ANTENNA__0844__B1
*1726 ANTENNA__0845__A1
*1727 ANTENNA__0848__B1
*1728 ANTENNA__0850__C
*1729 ANTENNA__0850__X
*1730 ANTENNA__0851__A
*1731 ANTENNA__0851__X
*1732 ANTENNA__0852__A
*1733 ANTENNA__0852__B
*1734 ANTENNA__0853__A1
*1735 ANTENNA__0853__A2
*1736 ANTENNA__0853__B1_N
*1737 ANTENNA__0854__A
*1738 ANTENNA__0854__B
*1739 ANTENNA__0855__A1
*1740 ANTENNA__0856__A1
*1741 ANTENNA__0856__A2
*1742 ANTENNA__0856__B1_N
*1743 ANTENNA__0857__A
*1744 ANTENNA__0857__B
*1745 ANTENNA__0858__A1
*1746 ANTENNA__0858__A2