*SPEF "ieee 1481-1999"
*DESIGN "SRAM_1024x32_wb_wrapper"
*DATE "20:32:11 Friday August 23, 2024"
*VENDOR "The OpenROAD Project"
*PROGRAM "OpenROAD"
*VERSION "b16bda7e82721d10566ff7e2b68f1ff0be9f9e38"
*DESIGN_FLOW "NAME_SCOPE LOCAL" "PIN_CAP NONE"
*DIVIDER /
*DELIMITER :
*BUS_DELIMITER []
*T_UNIT 1 NS
*C_UNIT 1 PF
*R_UNIT 1 OHM
*L_UNIT 1 HENRY

*NAME_MAP
*3 wb_clk_i
*4 wb_rst_i
*5 wbs_ack_o
*6 wbs_adr_i[0]
*7 wbs_adr_i[10]
*8 wbs_adr_i[11]
*9 wbs_adr_i[12]
*10 wbs_adr_i[13]
*11 wbs_adr_i[14]
*12 wbs_adr_i[15]
*13 wbs_adr_i[16]
*14 wbs_adr_i[17]
*15 wbs_adr_i[18]
*16 wbs_adr_i[19]
*17 wbs_adr_i[1]
*18 wbs_adr_i[20]
*19 wbs_adr_i[21]
*20 wbs_adr_i[22]
*21 wbs_adr_i[23]
*22 wbs_adr_i[24]
*23 wbs_adr_i[25]
*24 wbs_adr_i[26]
*25 wbs_adr_i[27]
*26 wbs_adr_i[28]
*27 wbs_adr_i[29]
*28 wbs_adr_i[2]
*29 wbs_adr_i[30]
*30 wbs_adr_i[31]
*31 wbs_adr_i[3]
*32 wbs_adr_i[4]
*33 wbs_adr_i[5]
*34 wbs_adr_i[6]
*35 wbs_adr_i[7]
*36 wbs_adr_i[8]
*37 wbs_adr_i[9]
*38 wbs_cyc_i
*39 wbs_dat_i[0]
*40 wbs_dat_i[10]
*41 wbs_dat_i[11]
*42 wbs_dat_i[12]
*43 wbs_dat_i[13]
*44 wbs_dat_i[14]
*45 wbs_dat_i[15]
*46 wbs_dat_i[16]
*47 wbs_dat_i[17]
*48 wbs_dat_i[18]
*49 wbs_dat_i[19]
*50 wbs_dat_i[1]
*51 wbs_dat_i[20]
*52 wbs_dat_i[21]
*53 wbs_dat_i[22]
*54 wbs_dat_i[23]
*55 wbs_dat_i[24]
*56 wbs_dat_i[25]
*57 wbs_dat_i[26]
*58 wbs_dat_i[27]
*59 wbs_dat_i[28]
*60 wbs_dat_i[29]
*61 wbs_dat_i[2]
*62 wbs_dat_i[30]
*63 wbs_dat_i[31]
*64 wbs_dat_i[3]
*65 wbs_dat_i[4]
*66 wbs_dat_i[5]
*67 wbs_dat_i[6]
*68 wbs_dat_i[7]
*69 wbs_dat_i[8]
*70 wbs_dat_i[9]
*71 wbs_dat_o[0]
*72 wbs_dat_o[10]
*73 wbs_dat_o[11]
*74 wbs_dat_o[12]
*75 wbs_dat_o[13]
*76 wbs_dat_o[14]
*77 wbs_dat_o[15]
*78 wbs_dat_o[16]
*79 wbs_dat_o[17]
*80 wbs_dat_o[18]
*81 wbs_dat_o[19]
*82 wbs_dat_o[1]
*83 wbs_dat_o[20]
*84 wbs_dat_o[21]
*85 wbs_dat_o[22]
*86 wbs_dat_o[23]
*87 wbs_dat_o[24]
*88 wbs_dat_o[25]
*89 wbs_dat_o[26]
*90 wbs_dat_o[27]
*91 wbs_dat_o[28]
*92 wbs_dat_o[29]
*93 wbs_dat_o[2]
*94 wbs_dat_o[30]
*95 wbs_dat_o[31]
*96 wbs_dat_o[3]
*97 wbs_dat_o[4]
*98 wbs_dat_o[5]
*99 wbs_dat_o[6]
*100 wbs_dat_o[7]
*101 wbs_dat_o[8]
*102 wbs_dat_o[9]
*103 wbs_sel_i[0]
*104 wbs_sel_i[1]
*105 wbs_sel_i[2]
*106 wbs_sel_i[3]
*107 wbs_stb_i
*108 wbs_we_i
*109 _0_
*110 _1_
*111 clknet_0_wb_clk_i
*112 clknet_1_0__leaf_wb_clk_i
*113 clknet_1_1__leaf_wb_clk_i
*114 net1
*115 net10
*116 net100
*117 net101
*118 net102
*119 net103
*120 net104
*121 net105
*122 net106
*123 net107
*124 net108
*125 net109
*126 net11
*127 net110
*128 net111
*129 net112
*130 net113
*131 net114
*132 net115
*133 net116
*134 net117
*135 net118
*136 net119
*137 net12
*138 net120
*139 net121
*140 net122
*141 net123
*142 net124
*143 net125
*144 net126
*145 net127
*146 net128
*147 net129
*148 net13
*149 net130
*150 net131
*151 net132
*152 net133
*153 net134
*154 net135
*155 net136
*156 net137
*157 net138
*158 net139
*159 net14
*160 net140
*161 net141
*162 net142
*163 net143
*164 net144
*165 net145
*166 net146
*167 net147
*168 net148
*169 net149
*170 net15
*171 net150
*172 net151
*173 net152
*174 net153
*175 net154
*176 net155
*177 net156
*178 net157
*179 net158
*180 net159
*181 net16
*182 net160
*183 net161
*184 net162
*185 net163
*186 net164
*187 net165
*188 net166
*189 net167
*190 net168
*191 net169
*192 net17
*193 net170
*194 net171
*195 net172
*196 net173
*197 net174
*198 net175
*199 net176
*200 net177
*201 net178
*202 net179
*203 net18
*204 net180
*205 net181
*206 net182
*207 net183
*208 net184
*209 net185
*210 net186
*211 net187
*212 net188
*213 net189
*214 net19
*215 net190
*216 net191
*217 net192
*218 net193
*219 net194
*220 net195
*221 net196
*222 net197
*223 net198
*224 net199
*225 net2
*226 net20
*227 net200
*228 net201
*229 net202
*230 net203
*231 net204
*232 net205
*233 net206
*234 net207
*235 net208
*236 net209
*237 net21
*238 net210
*239 net211
*240 net212
*241 net213
*242 net214
*243 net215
*244 net216
*245 net217
*246 net218
*247 net219
*248 net22
*249 net220
*250 net221
*251 net222
*252 net223
*253 net224
*254 net225
*255 net226
*256 net227
*257 net228
*258 net229
*259 net23
*260 net230
*261 net231
*262 net232
*263 net24
*264 net25
*265 net26
*266 net27
*267 net28
*268 net29
*269 net3
*270 net30
*271 net31
*272 net32
*273 net33
*274 net34
*275 net35
*276 net36
*277 net37
*278 net38
*279 net39
*280 net4
*281 net40
*282 net41
*283 net42
*284 net43
*285 net44
*286 net45
*287 net46
*288 net47
*289 net48
*290 net49
*291 net5
*292 net50
*293 net51
*294 net52
*295 net53
*296 net54
*297 net55
*298 net56
*299 net57
*300 net58
*301 net59
*302 net6
*303 net60
*304 net61
*305 net62
*306 net63
*307 net64
*308 net65
*309 net66
*310 net67
*311 net68
*312 net69
*313 net7
*314 net70
*315 net71
*316 net72
*317 net73
*318 net74
*319 net75
*320 net76
*321 net77
*322 net78
*323 net79
*324 net8
*325 net80
*326 net81
*327 net82
*328 net83
*329 net84
*330 net85
*331 net86
*332 net87
*333 net88
*334 net89
*335 net9
*336 net90
*337 net91
*338 net92
*339 net93
*340 net94
*341 net95
*342 net96
*343 net97
*344 net98
*345 net99
*346 ram_controller\.EN
*347 ram_controller\.R_WB
*348 FILLER_0_0_109
*349 FILLER_0_0_113
*350 FILLER_0_0_125
*351 FILLER_0_0_137
*352 FILLER_0_0_141
*353 FILLER_0_0_15
*354 FILLER_0_0_153
*355 FILLER_0_0_165
*356 FILLER_0_0_169
*357 FILLER_0_0_181
*358 FILLER_0_0_193
*359 FILLER_0_0_197
*360 FILLER_0_0_209
*361 FILLER_0_0_221
*362 FILLER_0_0_225
*363 FILLER_0_0_237
*364 FILLER_0_0_27
*365 FILLER_0_0_279
*366 FILLER_0_0_281
*367 FILLER_0_0_29
*368 FILLER_0_0_3
*369 FILLER_0_0_309
*370 FILLER_0_0_361
*371 FILLER_0_0_365
*372 FILLER_0_0_391
*373 FILLER_0_0_393
*374 FILLER_0_0_41
*375 FILLER_0_0_445
*376 FILLER_0_0_473
*377 FILLER_0_0_477
*378 FILLER_0_0_529
*379 FILLER_0_0_53
*380 FILLER_0_0_557
*381 FILLER_0_0_57
*382 FILLER_0_0_585
*383 FILLER_0_0_613
*384 FILLER_0_0_641
*385 FILLER_0_0_669
*386 FILLER_0_0_69
*387 FILLER_0_0_697
*388 FILLER_0_0_701
*389 FILLER_0_0_727
*390 FILLER_0_0_753
*391 FILLER_0_0_781
*392 FILLER_0_0_793
*393 FILLER_0_0_81
*394 FILLER_0_0_85
*395 FILLER_0_0_97
*396 FILLER_0_100_702
*397 FILLER_0_100_714
*398 FILLER_0_100_726
*399 FILLER_0_100_728
*400 FILLER_0_100_740
*401 FILLER_0_100_752
*402 FILLER_0_100_764
*403 FILLER_0_100_776
*404 FILLER_0_100_782
*405 FILLER_0_100_784
*406 FILLER_0_100_796
*407 FILLER_0_100_800
*408 FILLER_0_101_702
*409 FILLER_0_101_714
*410 FILLER_0_101_726
*411 FILLER_0_101_738
*412 FILLER_0_101_750
*413 FILLER_0_101_754
*414 FILLER_0_101_756
*415 FILLER_0_101_768
*416 FILLER_0_101_780
*417 FILLER_0_101_792
*418 FILLER_0_101_800
*419 FILLER_0_102_702
*420 FILLER_0_102_714
*421 FILLER_0_102_726
*422 FILLER_0_102_728
*423 FILLER_0_102_740
*424 FILLER_0_102_752
*425 FILLER_0_102_764
*426 FILLER_0_102_776
*427 FILLER_0_102_782
*428 FILLER_0_102_784
*429 FILLER_0_102_796
*430 FILLER_0_102_800
*431 FILLER_0_103_702
*432 FILLER_0_103_714
*433 FILLER_0_103_726
*434 FILLER_0_103_738
*435 FILLER_0_103_750
*436 FILLER_0_103_754
*437 FILLER_0_103_756
*438 FILLER_0_103_768
*439 FILLER_0_103_780
*440 FILLER_0_103_792
*441 FILLER_0_103_800
*442 FILLER_0_104_702
*443 FILLER_0_104_714
*444 FILLER_0_104_726
*445 FILLER_0_104_728
*446 FILLER_0_104_740
*447 FILLER_0_104_752
*448 FILLER_0_104_764
*449 FILLER_0_104_776
*450 FILLER_0_104_782
*451 FILLER_0_104_784
*452 FILLER_0_104_796
*453 FILLER_0_104_800
*454 FILLER_0_105_702
*455 FILLER_0_105_714
*456 FILLER_0_105_726
*457 FILLER_0_105_738
*458 FILLER_0_105_750
*459 FILLER_0_105_754
*460 FILLER_0_105_756
*461 FILLER_0_105_768
*462 FILLER_0_105_780
*463 FILLER_0_105_792
*464 FILLER_0_105_800
*465 FILLER_0_106_702
*466 FILLER_0_106_714
*467 FILLER_0_106_726
*468 FILLER_0_106_728
*469 FILLER_0_106_740
*470 FILLER_0_106_752
*471 FILLER_0_106_764
*472 FILLER_0_106_776
*473 FILLER_0_106_782
*474 FILLER_0_106_784
*475 FILLER_0_106_796
*476 FILLER_0_106_800
*477 FILLER_0_107_702
*478 FILLER_0_107_714
*479 FILLER_0_107_726
*480 FILLER_0_107_738
*481 FILLER_0_107_750
*482 FILLER_0_107_754
*483 FILLER_0_107_756
*484 FILLER_0_107_768
*485 FILLER_0_107_780
*486 FILLER_0_107_792
*487 FILLER_0_107_800
*488 FILLER_0_108_702
*489 FILLER_0_108_714
*490 FILLER_0_108_726
*491 FILLER_0_108_728
*492 FILLER_0_108_740
*493 FILLER_0_108_752
*494 FILLER_0_108_764
*495 FILLER_0_108_776
*496 FILLER_0_108_782
*497 FILLER_0_108_784
*498 FILLER_0_108_796
*499 FILLER_0_108_800
*500 FILLER_0_109_702
*501 FILLER_0_109_714
*502 FILLER_0_109_726
*503 FILLER_0_109_738
*504 FILLER_0_109_750
*505 FILLER_0_109_754
*506 FILLER_0_109_756
*507 FILLER_0_109_768
*508 FILLER_0_109_780
*509 FILLER_0_109_792
*510 FILLER_0_109_800
*511 FILLER_0_10_702
*512 FILLER_0_10_714
*513 FILLER_0_10_726
*514 FILLER_0_10_728
*515 FILLER_0_10_740
*516 FILLER_0_10_752
*517 FILLER_0_10_764
*518 FILLER_0_10_776
*519 FILLER_0_10_782
*520 FILLER_0_10_784
*521 FILLER_0_10_796
*522 FILLER_0_10_800
*523 FILLER_0_110_702
*524 FILLER_0_110_714
*525 FILLER_0_110_726
*526 FILLER_0_110_728
*527 FILLER_0_110_740
*528 FILLER_0_110_752
*529 FILLER_0_110_764
*530 FILLER_0_110_776
*531 FILLER_0_110_782
*532 FILLER_0_110_784
*533 FILLER_0_110_796
*534 FILLER_0_110_800
*535 FILLER_0_111_702
*536 FILLER_0_111_714
*537 FILLER_0_111_726
*538 FILLER_0_111_738
*539 FILLER_0_111_750
*540 FILLER_0_111_754
*541 FILLER_0_111_756
*542 FILLER_0_111_768
*543 FILLER_0_111_780
*544 FILLER_0_111_792
*545 FILLER_0_111_800
*546 FILLER_0_112_702
*547 FILLER_0_112_714
*548 FILLER_0_112_726
*549 FILLER_0_112_728
*550 FILLER_0_112_740
*551 FILLER_0_112_752
*552 FILLER_0_112_764
*553 FILLER_0_112_776
*554 FILLER_0_112_782
*555 FILLER_0_112_784
*556 FILLER_0_112_796
*557 FILLER_0_112_800
*558 FILLER_0_113_702
*559 FILLER_0_113_714
*560 FILLER_0_113_726
*561 FILLER_0_113_738
*562 FILLER_0_113_750
*563 FILLER_0_113_754
*564 FILLER_0_113_756
*565 FILLER_0_113_768
*566 FILLER_0_113_780
*567 FILLER_0_113_792
*568 FILLER_0_113_800
*569 FILLER_0_114_702
*570 FILLER_0_114_714
*571 FILLER_0_114_726
*572 FILLER_0_114_728
*573 FILLER_0_114_740
*574 FILLER_0_114_752
*575 FILLER_0_114_764
*576 FILLER_0_114_776
*577 FILLER_0_114_782
*578 FILLER_0_114_784
*579 FILLER_0_114_796
*580 FILLER_0_114_800
*581 FILLER_0_115_702
*582 FILLER_0_115_714
*583 FILLER_0_115_726
*584 FILLER_0_115_738
*585 FILLER_0_115_750
*586 FILLER_0_115_754
*587 FILLER_0_115_756
*588 FILLER_0_115_768
*589 FILLER_0_115_780
*590 FILLER_0_115_792
*591 FILLER_0_115_800
*592 FILLER_0_116_702
*593 FILLER_0_116_714
*594 FILLER_0_116_726
*595 FILLER_0_116_728
*596 FILLER_0_116_740
*597 FILLER_0_116_752
*598 FILLER_0_116_764
*599 FILLER_0_116_776
*600 FILLER_0_116_782
*601 FILLER_0_116_784
*602 FILLER_0_116_796
*603 FILLER_0_116_800
*604 FILLER_0_117_702
*605 FILLER_0_117_714
*606 FILLER_0_117_726
*607 FILLER_0_117_738
*608 FILLER_0_117_750
*609 FILLER_0_117_754
*610 FILLER_0_117_756
*611 FILLER_0_117_768
*612 FILLER_0_117_780
*613 FILLER_0_117_792
*614 FILLER_0_117_800
*615 FILLER_0_118_702
*616 FILLER_0_118_714
*617 FILLER_0_118_726
*618 FILLER_0_118_728
*619 FILLER_0_118_740
*620 FILLER_0_118_752
*621 FILLER_0_118_764
*622 FILLER_0_118_776
*623 FILLER_0_118_782
*624 FILLER_0_118_784
*625 FILLER_0_118_796
*626 FILLER_0_118_800
*627 FILLER_0_119_702
*628 FILLER_0_119_714
*629 FILLER_0_119_726
*630 FILLER_0_119_738
*631 FILLER_0_119_750
*632 FILLER_0_119_754
*633 FILLER_0_119_756
*634 FILLER_0_119_768
*635 FILLER_0_119_780
*636 FILLER_0_119_792
*637 FILLER_0_119_800
*638 FILLER_0_11_702
*639 FILLER_0_11_714
*640 FILLER_0_11_726
*641 FILLER_0_11_738
*642 FILLER_0_11_750
*643 FILLER_0_11_754
*644 FILLER_0_11_756
*645 FILLER_0_11_768
*646 FILLER_0_11_780
*647 FILLER_0_11_792
*648 FILLER_0_11_800
*649 FILLER_0_120_702
*650 FILLER_0_120_714
*651 FILLER_0_120_726
*652 FILLER_0_120_728
*653 FILLER_0_120_740
*654 FILLER_0_120_752
*655 FILLER_0_120_764
*656 FILLER_0_120_776
*657 FILLER_0_120_782
*658 FILLER_0_120_784
*659 FILLER_0_120_796
*660 FILLER_0_120_800
*661 FILLER_0_121_702
*662 FILLER_0_121_714
*663 FILLER_0_121_726
*664 FILLER_0_121_738
*665 FILLER_0_121_750
*666 FILLER_0_121_754
*667 FILLER_0_121_756
*668 FILLER_0_121_768
*669 FILLER_0_121_780
*670 FILLER_0_121_792
*671 FILLER_0_121_800
*672 FILLER_0_122_702
*673 FILLER_0_122_714
*674 FILLER_0_122_726
*675 FILLER_0_122_728
*676 FILLER_0_122_740
*677 FILLER_0_122_752
*678 FILLER_0_122_764
*679 FILLER_0_122_776
*680 FILLER_0_122_782
*681 FILLER_0_122_784
*682 FILLER_0_122_796
*683 FILLER_0_122_800
*684 FILLER_0_123_702
*685 FILLER_0_123_714
*686 FILLER_0_123_726
*687 FILLER_0_123_738
*688 FILLER_0_123_750
*689 FILLER_0_123_754
*690 FILLER_0_123_756
*691 FILLER_0_123_768
*692 FILLER_0_123_780
*693 FILLER_0_123_792
*694 FILLER_0_123_800
*695 FILLER_0_124_702
*696 FILLER_0_124_714
*697 FILLER_0_124_726
*698 FILLER_0_124_728
*699 FILLER_0_124_740
*700 FILLER_0_124_752
*701 FILLER_0_124_764
*702 FILLER_0_124_776
*703 FILLER_0_124_782
*704 FILLER_0_124_784
*705 FILLER_0_124_796
*706 FILLER_0_124_800
*707 FILLER_0_125_702
*708 FILLER_0_125_714
*709 FILLER_0_125_726
*710 FILLER_0_125_738
*711 FILLER_0_125_750
*712 FILLER_0_125_754
*713 FILLER_0_125_756
*714 FILLER_0_125_768
*715 FILLER_0_125_780
*716 FILLER_0_125_792
*717 FILLER_0_125_800
*718 FILLER_0_126_702
*719 FILLER_0_126_714
*720 FILLER_0_126_726
*721 FILLER_0_126_728
*722 FILLER_0_126_740
*723 FILLER_0_126_752
*724 FILLER_0_126_764
*725 FILLER_0_126_776
*726 FILLER_0_126_782
*727 FILLER_0_126_784
*728 FILLER_0_126_796
*729 FILLER_0_126_800
*730 FILLER_0_127_702
*731 FILLER_0_127_714
*732 FILLER_0_127_726
*733 FILLER_0_127_738
*734 FILLER_0_127_750
*735 FILLER_0_127_754
*736 FILLER_0_127_756
*737 FILLER_0_127_768
*738 FILLER_0_127_780
*739 FILLER_0_127_792
*740 FILLER_0_127_800
*741 FILLER_0_128_702
*742 FILLER_0_128_714
*743 FILLER_0_128_726
*744 FILLER_0_128_728
*745 FILLER_0_128_740
*746 FILLER_0_128_752
*747 FILLER_0_128_764
*748 FILLER_0_128_776
*749 FILLER_0_128_782
*750 FILLER_0_128_784
*751 FILLER_0_128_796
*752 FILLER_0_128_800
*753 FILLER_0_129_702
*754 FILLER_0_129_714
*755 FILLER_0_129_726
*756 FILLER_0_129_738
*757 FILLER_0_129_750
*758 FILLER_0_129_754
*759 FILLER_0_129_756
*760 FILLER_0_129_768
*761 FILLER_0_129_780
*762 FILLER_0_129_792
*763 FILLER_0_129_800
*764 FILLER_0_12_702
*765 FILLER_0_12_714
*766 FILLER_0_12_726
*767 FILLER_0_12_728
*768 FILLER_0_12_740
*769 FILLER_0_12_752
*770 FILLER_0_12_764
*771 FILLER_0_12_776
*772 FILLER_0_12_782
*773 FILLER_0_12_784
*774 FILLER_0_12_796
*775 FILLER_0_12_800
*776 FILLER_0_130_702
*777 FILLER_0_130_714
*778 FILLER_0_130_726
*779 FILLER_0_130_728
*780 FILLER_0_130_740
*781 FILLER_0_130_752
*782 FILLER_0_130_764
*783 FILLER_0_130_776
*784 FILLER_0_130_782
*785 FILLER_0_130_784
*786 FILLER_0_130_796
*787 FILLER_0_130_800
*788 FILLER_0_131_702
*789 FILLER_0_131_714
*790 FILLER_0_131_726
*791 FILLER_0_131_738
*792 FILLER_0_131_750
*793 FILLER_0_131_754
*794 FILLER_0_131_756
*795 FILLER_0_131_768
*796 FILLER_0_131_780
*797 FILLER_0_131_792
*798 FILLER_0_131_800
*799 FILLER_0_132_702
*800 FILLER_0_132_714
*801 FILLER_0_132_726
*802 FILLER_0_132_728
*803 FILLER_0_132_740
*804 FILLER_0_132_752
*805 FILLER_0_132_764
*806 FILLER_0_132_776
*807 FILLER_0_132_782
*808 FILLER_0_132_784
*809 FILLER_0_132_796
*810 FILLER_0_132_800
*811 FILLER_0_133_702
*812 FILLER_0_133_714
*813 FILLER_0_133_726
*814 FILLER_0_133_738
*815 FILLER_0_133_750
*816 FILLER_0_133_754
*817 FILLER_0_133_756
*818 FILLER_0_133_768
*819 FILLER_0_133_780
*820 FILLER_0_133_792
*821 FILLER_0_133_800
*822 FILLER_0_134_702
*823 FILLER_0_134_714
*824 FILLER_0_134_726
*825 FILLER_0_134_728
*826 FILLER_0_134_740
*827 FILLER_0_134_752
*828 FILLER_0_134_764
*829 FILLER_0_134_776
*830 FILLER_0_134_782
*831 FILLER_0_134_784
*832 FILLER_0_134_796
*833 FILLER_0_134_800
*834 FILLER_0_135_702
*835 FILLER_0_135_714
*836 FILLER_0_135_726
*837 FILLER_0_135_738
*838 FILLER_0_135_750
*839 FILLER_0_135_754
*840 FILLER_0_135_756
*841 FILLER_0_135_768
*842 FILLER_0_135_780
*843 FILLER_0_135_792
*844 FILLER_0_135_800
*845 FILLER_0_136_702
*846 FILLER_0_136_714
*847 FILLER_0_136_726
*848 FILLER_0_136_728
*849 FILLER_0_136_740
*850 FILLER_0_136_752
*851 FILLER_0_136_764
*852 FILLER_0_136_776
*853 FILLER_0_136_782
*854 FILLER_0_136_784
*855 FILLER_0_136_796
*856 FILLER_0_136_800
*857 FILLER_0_137_702
*858 FILLER_0_137_714
*859 FILLER_0_137_726
*860 FILLER_0_137_738
*861 FILLER_0_137_750
*862 FILLER_0_137_754
*863 FILLER_0_137_756
*864 FILLER_0_137_768
*865 FILLER_0_137_780
*866 FILLER_0_137_792
*867 FILLER_0_137_800
*868 FILLER_0_138_702
*869 FILLER_0_138_714
*870 FILLER_0_138_726
*871 FILLER_0_138_728
*872 FILLER_0_138_740
*873 FILLER_0_138_752
*874 FILLER_0_138_764
*875 FILLER_0_138_776
*876 FILLER_0_138_782
*877 FILLER_0_138_784
*878 FILLER_0_138_796
*879 FILLER_0_138_800
*880 FILLER_0_139_702
*881 FILLER_0_139_714
*882 FILLER_0_139_726
*883 FILLER_0_139_738
*884 FILLER_0_139_750
*885 FILLER_0_139_754
*886 FILLER_0_139_756
*887 FILLER_0_139_768
*888 FILLER_0_139_780
*889 FILLER_0_139_792
*890 FILLER_0_139_800
*891 FILLER_0_13_702
*892 FILLER_0_13_714
*893 FILLER_0_13_726
*894 FILLER_0_13_738
*895 FILLER_0_13_750
*896 FILLER_0_13_754
*897 FILLER_0_13_756
*898 FILLER_0_13_768
*899 FILLER_0_13_780
*900 FILLER_0_13_792
*901 FILLER_0_13_800
*902 FILLER_0_140_702
*903 FILLER_0_140_714
*904 FILLER_0_140_726
*905 FILLER_0_140_728
*906 FILLER_0_140_740
*907 FILLER_0_140_752
*908 FILLER_0_140_764
*909 FILLER_0_140_776
*910 FILLER_0_140_782
*911 FILLER_0_140_784
*912 FILLER_0_140_796
*913 FILLER_0_140_800
*914 FILLER_0_141_702
*915 FILLER_0_141_714
*916 FILLER_0_141_726
*917 FILLER_0_141_738
*918 FILLER_0_141_750
*919 FILLER_0_141_754
*920 FILLER_0_141_756
*921 FILLER_0_141_768
*922 FILLER_0_141_780
*923 FILLER_0_141_792
*924 FILLER_0_141_800
*925 FILLER_0_142_702
*926 FILLER_0_142_714
*927 FILLER_0_142_726
*928 FILLER_0_142_728
*929 FILLER_0_142_740
*930 FILLER_0_142_752
*931 FILLER_0_142_764
*932 FILLER_0_142_776
*933 FILLER_0_142_782
*934 FILLER_0_142_784
*935 FILLER_0_142_796
*936 FILLER_0_142_800
*937 FILLER_0_143_702
*938 FILLER_0_143_714
*939 FILLER_0_143_726
*940 FILLER_0_143_738
*941 FILLER_0_143_750
*942 FILLER_0_143_754
*943 FILLER_0_143_756
*944 FILLER_0_143_768
*945 FILLER_0_143_780
*946 FILLER_0_143_792
*947 FILLER_0_143_800
*948 FILLER_0_144_702
*949 FILLER_0_144_714
*950 FILLER_0_144_726
*951 FILLER_0_144_728
*952 FILLER_0_144_740
*953 FILLER_0_144_752
*954 FILLER_0_144_764
*955 FILLER_0_144_776
*956 FILLER_0_144_782
*957 FILLER_0_144_784
*958 FILLER_0_144_796
*959 FILLER_0_144_800
*960 FILLER_0_145_702
*961 FILLER_0_145_714
*962 FILLER_0_145_726
*963 FILLER_0_145_738
*964 FILLER_0_145_750
*965 FILLER_0_145_754
*966 FILLER_0_145_756
*967 FILLER_0_145_768
*968 FILLER_0_145_780
*969 FILLER_0_145_792
*970 FILLER_0_145_800
*971 FILLER_0_146_702
*972 FILLER_0_146_714
*973 FILLER_0_146_726
*974 FILLER_0_146_728
*975 FILLER_0_146_740
*976 FILLER_0_146_752
*977 FILLER_0_146_764
*978 FILLER_0_146_776
*979 FILLER_0_146_782
*980 FILLER_0_146_784
*981 FILLER_0_146_796
*982 FILLER_0_146_800
*983 FILLER_0_147_702
*984 FILLER_0_147_714
*985 FILLER_0_147_726
*986 FILLER_0_147_738
*987 FILLER_0_147_750
*988 FILLER_0_147_754
*989 FILLER_0_147_756
*990 FILLER_0_147_768
*991 FILLER_0_147_780
*992 FILLER_0_147_792
*993 FILLER_0_147_800
*994 FILLER_0_148_702
*995 FILLER_0_148_714
*996 FILLER_0_148_726
*997 FILLER_0_148_728
*998 FILLER_0_148_740
*999 FILLER_0_148_752
*1000 FILLER_0_148_764
*1001 FILLER_0_148_776
*1002 FILLER_0_148_782
*1003 FILLER_0_148_784
*1004 FILLER_0_148_796
*1005 FILLER_0_148_800
*1006 FILLER_0_149_702
*1007 FILLER_0_149_714
*1008 FILLER_0_149_726
*1009 FILLER_0_149_738
*1010 FILLER_0_149_750
*1011 FILLER_0_149_754
*1012 FILLER_0_149_756
*1013 FILLER_0_149_768
*1014 FILLER_0_149_780
*1015 FILLER_0_149_792
*1016 FILLER_0_149_800
*1017 FILLER_0_14_702
*1018 FILLER_0_14_714
*1019 FILLER_0_14_726
*1020 FILLER_0_14_728
*1021 FILLER_0_14_740
*1022 FILLER_0_14_752
*1023 FILLER_0_14_764
*1024 FILLER_0_14_776
*1025 FILLER_0_14_782
*1026 FILLER_0_14_784
*1027 FILLER_0_14_796
*1028 FILLER_0_14_800
*1029 FILLER_0_150_702
*1030 FILLER_0_150_714
*1031 FILLER_0_150_726
*1032 FILLER_0_150_728
*1033 FILLER_0_150_740
*1034 FILLER_0_150_752
*1035 FILLER_0_150_764
*1036 FILLER_0_150_776
*1037 FILLER_0_150_782
*1038 FILLER_0_150_784
*1039 FILLER_0_150_796
*1040 FILLER_0_150_800
*1041 FILLER_0_151_702
*1042 FILLER_0_151_714
*1043 FILLER_0_151_726
*1044 FILLER_0_151_738
*1045 FILLER_0_151_750
*1046 FILLER_0_151_754
*1047 FILLER_0_151_756
*1048 FILLER_0_151_768
*1049 FILLER_0_151_780
*1050 FILLER_0_151_792
*1051 FILLER_0_151_800
*1052 FILLER_0_152_702
*1053 FILLER_0_152_714
*1054 FILLER_0_152_726
*1055 FILLER_0_152_728
*1056 FILLER_0_152_740
*1057 FILLER_0_152_752
*1058 FILLER_0_152_764
*1059 FILLER_0_152_776
*1060 FILLER_0_152_782
*1061 FILLER_0_152_784
*1062 FILLER_0_152_796
*1063 FILLER_0_152_800
*1064 FILLER_0_153_702
*1065 FILLER_0_153_714
*1066 FILLER_0_153_726
*1067 FILLER_0_153_738
*1068 FILLER_0_153_750
*1069 FILLER_0_153_754
*1070 FILLER_0_153_756
*1071 FILLER_0_153_768
*1072 FILLER_0_153_780
*1073 FILLER_0_153_792
*1074 FILLER_0_153_800
*1075 FILLER_0_154_702
*1076 FILLER_0_154_714
*1077 FILLER_0_154_726
*1078 FILLER_0_154_728
*1079 FILLER_0_154_740
*1080 FILLER_0_154_752
*1081 FILLER_0_154_764
*1082 FILLER_0_154_776
*1083 FILLER_0_154_782
*1084 FILLER_0_154_784
*1085 FILLER_0_154_796
*1086 FILLER_0_154_800
*1087 FILLER_0_155_702
*1088 FILLER_0_155_714
*1089 FILLER_0_155_726
*1090 FILLER_0_155_728
*1091 FILLER_0_155_740
*1092 FILLER_0_155_752
*1093 FILLER_0_155_756
*1094 FILLER_0_155_768
*1095 FILLER_0_155_780
*1096 FILLER_0_155_784
*1097 FILLER_0_155_796
*1098 FILLER_0_155_800
*1099 FILLER_0_15_702
*1100 FILLER_0_15_714
*1101 FILLER_0_15_726
*1102 FILLER_0_15_738
*1103 FILLER_0_15_750
*1104 FILLER_0_15_754
*1105 FILLER_0_15_756
*1106 FILLER_0_15_768
*1107 FILLER_0_15_780
*1108 FILLER_0_15_792
*1109 FILLER_0_15_800
*1110 FILLER_0_16_702
*1111 FILLER_0_16_714
*1112 FILLER_0_16_726
*1113 FILLER_0_16_728
*1114 FILLER_0_16_740
*1115 FILLER_0_16_752
*1116 FILLER_0_16_764
*1117 FILLER_0_16_776
*1118 FILLER_0_16_782
*1119 FILLER_0_16_784
*1120 FILLER_0_16_796
*1121 FILLER_0_16_800
*1122 FILLER_0_17_702
*1123 FILLER_0_17_714
*1124 FILLER_0_17_726
*1125 FILLER_0_17_738
*1126 FILLER_0_17_750
*1127 FILLER_0_17_754
*1128 FILLER_0_17_756
*1129 FILLER_0_17_768
*1130 FILLER_0_17_780
*1131 FILLER_0_17_792
*1132 FILLER_0_17_800
*1133 FILLER_0_18_702
*1134 FILLER_0_18_714
*1135 FILLER_0_18_726
*1136 FILLER_0_18_728
*1137 FILLER_0_18_740
*1138 FILLER_0_18_752
*1139 FILLER_0_18_764
*1140 FILLER_0_18_776
*1141 FILLER_0_18_782
*1142 FILLER_0_18_784
*1143 FILLER_0_18_796
*1144 FILLER_0_18_800
*1145 FILLER_0_19_702
*1146 FILLER_0_19_714
*1147 FILLER_0_19_726
*1148 FILLER_0_19_738
*1149 FILLER_0_19_750
*1150 FILLER_0_19_754
*1151 FILLER_0_19_756
*1152 FILLER_0_19_768
*1153 FILLER_0_19_780
*1154 FILLER_0_19_792
*1155 FILLER_0_19_800
*1156 FILLER_0_1_105
*1157 FILLER_0_1_111
*1158 FILLER_0_1_113
*1159 FILLER_0_1_125
*1160 FILLER_0_1_137
*1161 FILLER_0_1_149
*1162 FILLER_0_1_15
*1163 FILLER_0_1_161
*1164 FILLER_0_1_167
*1165 FILLER_0_1_169
*1166 FILLER_0_1_181
*1167 FILLER_0_1_193
*1168 FILLER_0_1_205
*1169 FILLER_0_1_217
*1170 FILLER_0_1_223
*1171 FILLER_0_1_225
*1172 FILLER_0_1_237
*1173 FILLER_0_1_27
*1174 FILLER_0_1_281
*1175 FILLER_0_1_3
*1176 FILLER_0_1_301
*1177 FILLER_0_1_337
*1178 FILLER_0_1_356
*1179 FILLER_0_1_39
*1180 FILLER_0_1_447
*1181 FILLER_0_1_449
*1182 FILLER_0_1_490
*1183 FILLER_0_1_501
*1184 FILLER_0_1_509
*1185 FILLER_0_1_51
*1186 FILLER_0_1_55
*1187 FILLER_0_1_556
*1188 FILLER_0_1_569
*1189 FILLER_0_1_57
*1190 FILLER_0_1_625
*1191 FILLER_0_1_629
*1192 FILLER_0_1_654
*1193 FILLER_0_1_671
*1194 FILLER_0_1_673
*1195 FILLER_0_1_69
*1196 FILLER_0_1_715
*1197 FILLER_0_1_725
*1198 FILLER_0_1_781
*1199 FILLER_0_1_785
*1200 FILLER_0_1_797
*1201 FILLER_0_1_81
*1202 FILLER_0_1_93
*1203 FILLER_0_20_702
*1204 FILLER_0_20_714
*1205 FILLER_0_20_726
*1206 FILLER_0_20_728
*1207 FILLER_0_20_740
*1208 FILLER_0_20_752
*1209 FILLER_0_20_764
*1210 FILLER_0_20_776
*1211 FILLER_0_20_782
*1212 FILLER_0_20_784
*1213 FILLER_0_20_796
*1214 FILLER_0_20_800
*1215 FILLER_0_21_702
*1216 FILLER_0_21_714
*1217 FILLER_0_21_726
*1218 FILLER_0_21_738
*1219 FILLER_0_21_750
*1220 FILLER_0_21_754
*1221 FILLER_0_21_756
*1222 FILLER_0_21_768
*1223 FILLER_0_21_780
*1224 FILLER_0_21_792
*1225 FILLER_0_21_800
*1226 FILLER_0_22_702
*1227 FILLER_0_22_714
*1228 FILLER_0_22_726
*1229 FILLER_0_22_728
*1230 FILLER_0_22_740
*1231 FILLER_0_22_752
*1232 FILLER_0_22_764
*1233 FILLER_0_22_776
*1234 FILLER_0_22_782
*1235 FILLER_0_22_784
*1236 FILLER_0_22_796
*1237 FILLER_0_22_800
*1238 FILLER_0_23_702
*1239 FILLER_0_23_714
*1240 FILLER_0_23_726
*1241 FILLER_0_23_738
*1242 FILLER_0_23_750
*1243 FILLER_0_23_754
*1244 FILLER_0_23_756
*1245 FILLER_0_23_768
*1246 FILLER_0_23_780
*1247 FILLER_0_23_792
*1248 FILLER_0_23_800
*1249 FILLER_0_24_702
*1250 FILLER_0_24_714
*1251 FILLER_0_24_726
*1252 FILLER_0_24_728
*1253 FILLER_0_24_740
*1254 FILLER_0_24_752
*1255 FILLER_0_24_764
*1256 FILLER_0_24_776
*1257 FILLER_0_24_782
*1258 FILLER_0_24_784
*1259 FILLER_0_24_796
*1260 FILLER_0_24_800
*1261 FILLER_0_25_702
*1262 FILLER_0_25_714
*1263 FILLER_0_25_726
*1264 FILLER_0_25_738
*1265 FILLER_0_25_750
*1266 FILLER_0_25_754
*1267 FILLER_0_25_756
*1268 FILLER_0_25_768
*1269 FILLER_0_25_780
*1270 FILLER_0_25_792
*1271 FILLER_0_25_800
*1272 FILLER_0_26_702
*1273 FILLER_0_26_714
*1274 FILLER_0_26_726
*1275 FILLER_0_26_728
*1276 FILLER_0_26_740
*1277 FILLER_0_26_752
*1278 FILLER_0_26_764
*1279 FILLER_0_26_776
*1280 FILLER_0_26_782
*1281 FILLER_0_26_784
*1282 FILLER_0_26_796
*1283 FILLER_0_26_800
*1284 FILLER_0_27_702
*1285 FILLER_0_27_714
*1286 FILLER_0_27_726
*1287 FILLER_0_27_738
*1288 FILLER_0_27_750
*1289 FILLER_0_27_754
*1290 FILLER_0_27_756
*1291 FILLER_0_27_768
*1292 FILLER_0_27_780
*1293 FILLER_0_27_792
*1294 FILLER_0_27_800
*1295 FILLER_0_28_702
*1296 FILLER_0_28_714
*1297 FILLER_0_28_726
*1298 FILLER_0_28_728
*1299 FILLER_0_28_740
*1300 FILLER_0_28_752
*1301 FILLER_0_28_764
*1302 FILLER_0_28_776
*1303 FILLER_0_28_782
*1304 FILLER_0_28_784
*1305 FILLER_0_28_796
*1306 FILLER_0_28_800
*1307 FILLER_0_29_702
*1308 FILLER_0_29_714
*1309 FILLER_0_29_726
*1310 FILLER_0_29_738
*1311 FILLER_0_29_750
*1312 FILLER_0_29_754
*1313 FILLER_0_29_756
*1314 FILLER_0_29_768
*1315 FILLER_0_29_780
*1316 FILLER_0_29_792
*1317 FILLER_0_29_800
*1318 FILLER_0_2_109
*1319 FILLER_0_2_121
*1320 FILLER_0_2_133
*1321 FILLER_0_2_139
*1322 FILLER_0_2_141
*1323 FILLER_0_2_15
*1324 FILLER_0_2_153
*1325 FILLER_0_2_165
*1326 FILLER_0_2_177
*1327 FILLER_0_2_189
*1328 FILLER_0_2_195
*1329 FILLER_0_2_197
*1330 FILLER_0_2_209
*1331 FILLER_0_2_221
*1332 FILLER_0_2_233
*1333 FILLER_0_2_245
*1334 FILLER_0_2_251
*1335 FILLER_0_2_253
*1336 FILLER_0_2_263
*1337 FILLER_0_2_27
*1338 FILLER_0_2_29
*1339 FILLER_0_2_296
*1340 FILLER_0_2_3
*1341 FILLER_0_2_309
*1342 FILLER_0_2_365
*1343 FILLER_0_2_369
*1344 FILLER_0_2_378
*1345 FILLER_0_2_388
*1346 FILLER_0_2_408
*1347 FILLER_0_2_41
*1348 FILLER_0_2_418
*1349 FILLER_0_2_421
*1350 FILLER_0_2_431
*1351 FILLER_0_2_442
*1352 FILLER_0_2_460
*1353 FILLER_0_2_471
*1354 FILLER_0_2_485
*1355 FILLER_0_2_497
*1356 FILLER_0_2_504
*1357 FILLER_0_2_513
*1358 FILLER_0_2_529
*1359 FILLER_0_2_53
*1360 FILLER_0_2_533
*1361 FILLER_0_2_542
*1362 FILLER_0_2_564
*1363 FILLER_0_2_570
*1364 FILLER_0_2_585
*1365 FILLER_0_2_597
*1366 FILLER_0_2_614
*1367 FILLER_0_2_623
*1368 FILLER_0_2_643
*1369 FILLER_0_2_645
*1370 FILLER_0_2_65
*1371 FILLER_0_2_652
*1372 FILLER_0_2_666
*1373 FILLER_0_2_678
*1374 FILLER_0_2_696
*1375 FILLER_0_2_701
*1376 FILLER_0_2_726
*1377 FILLER_0_2_746
*1378 FILLER_0_2_763
*1379 FILLER_0_2_77
*1380 FILLER_0_2_771
*1381 FILLER_0_2_779
*1382 FILLER_0_2_791
*1383 FILLER_0_2_799
*1384 FILLER_0_2_83
*1385 FILLER_0_2_85
*1386 FILLER_0_2_97
*1387 FILLER_0_30_702
*1388 FILLER_0_30_714
*1389 FILLER_0_30_726
*1390 FILLER_0_30_728
*1391 FILLER_0_30_740
*1392 FILLER_0_30_752
*1393 FILLER_0_30_764
*1394 FILLER_0_30_776
*1395 FILLER_0_30_782
*1396 FILLER_0_30_784
*1397 FILLER_0_30_796
*1398 FILLER_0_30_800
*1399 FILLER_0_31_702
*1400 FILLER_0_31_714
*1401 FILLER_0_31_726
*1402 FILLER_0_31_738
*1403 FILLER_0_31_750
*1404 FILLER_0_31_754
*1405 FILLER_0_31_756
*1406 FILLER_0_31_768
*1407 FILLER_0_31_780
*1408 FILLER_0_31_792
*1409 FILLER_0_31_800
*1410 FILLER_0_32_702
*1411 FILLER_0_32_714
*1412 FILLER_0_32_726
*1413 FILLER_0_32_728
*1414 FILLER_0_32_740
*1415 FILLER_0_32_752
*1416 FILLER_0_32_764
*1417 FILLER_0_32_776
*1418 FILLER_0_32_782
*1419 FILLER_0_32_784
*1420 FILLER_0_32_796
*1421 FILLER_0_32_800
*1422 FILLER_0_33_702
*1423 FILLER_0_33_714
*1424 FILLER_0_33_726
*1425 FILLER_0_33_738
*1426 FILLER_0_33_750
*1427 FILLER_0_33_754
*1428 FILLER_0_33_756
*1429 FILLER_0_33_768
*1430 FILLER_0_33_780
*1431 FILLER_0_33_792
*1432 FILLER_0_33_800
*1433 FILLER_0_34_702
*1434 FILLER_0_34_714
*1435 FILLER_0_34_726
*1436 FILLER_0_34_728
*1437 FILLER_0_34_740
*1438 FILLER_0_34_752
*1439 FILLER_0_34_764
*1440 FILLER_0_34_776
*1441 FILLER_0_34_782
*1442 FILLER_0_34_784
*1443 FILLER_0_34_796
*1444 FILLER_0_34_800
*1445 FILLER_0_35_702
*1446 FILLER_0_35_714
*1447 FILLER_0_35_726
*1448 FILLER_0_35_738
*1449 FILLER_0_35_750
*1450 FILLER_0_35_754
*1451 FILLER_0_35_756
*1452 FILLER_0_35_768
*1453 FILLER_0_35_780
*1454 FILLER_0_35_792
*1455 FILLER_0_35_800
*1456 FILLER_0_36_702
*1457 FILLER_0_36_714
*1458 FILLER_0_36_726
*1459 FILLER_0_36_728
*1460 FILLER_0_36_740
*1461 FILLER_0_36_752
*1462 FILLER_0_36_764
*1463 FILLER_0_36_776
*1464 FILLER_0_36_782
*1465 FILLER_0_36_784
*1466 FILLER_0_36_796
*1467 FILLER_0_36_800
*1468 FILLER_0_37_702
*1469 FILLER_0_37_714
*1470 FILLER_0_37_726
*1471 FILLER_0_37_738
*1472 FILLER_0_37_750
*1473 FILLER_0_37_754
*1474 FILLER_0_37_756
*1475 FILLER_0_37_768
*1476 FILLER_0_37_780
*1477 FILLER_0_37_792
*1478 FILLER_0_37_800
*1479 FILLER_0_38_702
*1480 FILLER_0_38_714
*1481 FILLER_0_38_726
*1482 FILLER_0_38_728
*1483 FILLER_0_38_740
*1484 FILLER_0_38_752
*1485 FILLER_0_38_764
*1486 FILLER_0_38_776
*1487 FILLER_0_38_782
*1488 FILLER_0_38_784
*1489 FILLER_0_38_796
*1490 FILLER_0_38_800
*1491 FILLER_0_39_702