*SPEF "ieee 1481-1999"
*DESIGN "team_10_Wrapper"
*DATE "18:03:32 Tuesday July 09, 2024"
*VENDOR "The OpenROAD Project"
*PROGRAM "OpenROAD"
*VERSION "d423155d69de7f683a23f6916ead418a615ad4ad"
*DESIGN_FLOW "NAME_SCOPE LOCAL" "PIN_CAP NONE"
*DIVIDER /
*DELIMITER :
*BUS_DELIMITER []
*T_UNIT 1 NS
*C_UNIT 1 PF
*R_UNIT 1 OHM
*L_UNIT 1 HENRY

*NAME_MAP
*1 gpio_in[0]
*2 gpio_in[10]
*3 gpio_in[11]
*4 gpio_in[12]
*5 gpio_in[13]
*6 gpio_in[14]
*7 gpio_in[15]
*8 gpio_in[16]
*9 gpio_in[17]
*10 gpio_in[18]
*11 gpio_in[19]
*12 gpio_in[1]
*13 gpio_in[20]
*14 gpio_in[21]
*15 gpio_in[22]
*16 gpio_in[23]
*17 gpio_in[24]
*18 gpio_in[25]
*19 gpio_in[26]
*20 gpio_in[27]
*21 gpio_in[28]
*22 gpio_in[29]
*23 gpio_in[2]
*24 gpio_in[30]
*25 gpio_in[31]
*26 gpio_in[32]
*27 gpio_in[33]
*28 gpio_in[34]
*29 gpio_in[35]
*30 gpio_in[36]
*31 gpio_in[37]
*32 gpio_in[3]
*33 gpio_in[4]
*34 gpio_in[5]
*35 gpio_in[6]
*36 gpio_in[7]
*37 gpio_in[8]
*38 gpio_in[9]
*39 gpio_oeb[0]
*40 gpio_oeb[10]
*41 gpio_oeb[11]
*42 gpio_oeb[12]
*43 gpio_oeb[13]
*44 gpio_oeb[14]
*45 gpio_oeb[15]
*46 gpio_oeb[16]
*47 gpio_oeb[17]
*48 gpio_oeb[18]
*49 gpio_oeb[19]
*50 gpio_oeb[1]
*51 gpio_oeb[20]
*52 gpio_oeb[21]
*53 gpio_oeb[22]
*54 gpio_oeb[23]
*55 gpio_oeb[24]
*56 gpio_oeb[25]
*57 gpio_oeb[26]
*58 gpio_oeb[27]
*59 gpio_oeb[28]
*60 gpio_oeb[29]
*61 gpio_oeb[2]
*62 gpio_oeb[30]
*63 gpio_oeb[31]
*64 gpio_oeb[32]
*65 gpio_oeb[33]
*66 gpio_oeb[34]
*67 gpio_oeb[35]
*68 gpio_oeb[36]
*69 gpio_oeb[37]
*70 gpio_oeb[3]
*71 gpio_oeb[4]
*72 gpio_oeb[5]
*73 gpio_oeb[6]
*74 gpio_oeb[7]
*75 gpio_oeb[8]
*76 gpio_oeb[9]
*77 gpio_out[0]
*78 gpio_out[10]
*79 gpio_out[11]
*80 gpio_out[12]
*81 gpio_out[13]
*82 gpio_out[14]
*83 gpio_out[15]
*84 gpio_out[16]
*85 gpio_out[17]
*86 gpio_out[18]
*87 gpio_out[19]
*88 gpio_out[1]
*89 gpio_out[20]
*90 gpio_out[21]
*91 gpio_out[22]
*92 gpio_out[23]
*93 gpio_out[24]
*94 gpio_out[25]
*95 gpio_out[26]
*96 gpio_out[27]
*97 gpio_out[28]
*98 gpio_out[29]
*99 gpio_out[2]
*100 gpio_out[30]
*101 gpio_out[31]
*102 gpio_out[32]
*103 gpio_out[33]
*104 gpio_out[34]
*105 gpio_out[35]
*106 gpio_out[36]
*107 gpio_out[37]
*108 gpio_out[3]
*109 gpio_out[4]
*110 gpio_out[5]
*111 gpio_out[6]
*112 gpio_out[7]
*113 gpio_out[8]
*114 gpio_out[9]
*115 irq[0]
*116 irq[1]
*117 irq[2]
*118 la_data_in[0]
*119 la_data_in[100]
*120 la_data_in[101]
*121 la_data_in[102]
*122 la_data_in[103]
*123 la_data_in[104]
*124 la_data_in[105]
*125 la_data_in[106]
*126 la_data_in[107]
*127 la_data_in[108]
*128 la_data_in[109]
*129 la_data_in[10]
*130 la_data_in[110]
*131 la_data_in[111]
*132 la_data_in[112]
*133 la_data_in[113]
*134 la_data_in[114]
*135 la_data_in[115]
*136 la_data_in[116]
*137 la_data_in[117]
*138 la_data_in[118]
*139 la_data_in[119]
*140 la_data_in[11]
*141 la_data_in[120]
*142 la_data_in[121]
*143 la_data_in[122]
*144 la_data_in[123]
*145 la_data_in[124]
*146 la_data_in[125]
*147 la_data_in[126]
*148 la_data_in[127]
*149 la_data_in[12]
*150 la_data_in[13]
*151 la_data_in[14]
*152 la_data_in[15]
*153 la_data_in[16]
*154 la_data_in[17]
*155 la_data_in[18]
*156 la_data_in[19]
*157 la_data_in[1]
*158 la_data_in[20]
*159 la_data_in[21]
*160 la_data_in[22]
*161 la_data_in[23]
*162 la_data_in[24]
*163 la_data_in[25]
*164 la_data_in[26]
*165 la_data_in[27]
*166 la_data_in[28]
*167 la_data_in[29]
*168 la_data_in[2]
*169 la_data_in[30]
*170 la_data_in[31]
*171 la_data_in[32]
*172 la_data_in[33]
*173 la_data_in[34]
*174 la_data_in[35]
*175 la_data_in[36]
*176 la_data_in[37]
*177 la_data_in[38]
*178 la_data_in[39]
*179 la_data_in[3]
*180 la_data_in[40]
*181 la_data_in[41]
*182 la_data_in[42]
*183 la_data_in[43]
*184 la_data_in[44]
*185 la_data_in[45]
*186 la_data_in[46]
*187 la_data_in[47]
*188 la_data_in[48]
*189 la_data_in[49]
*190 la_data_in[4]
*191 la_data_in[50]
*192 la_data_in[51]
*193 la_data_in[52]
*194 la_data_in[53]
*195 la_data_in[54]
*196 la_data_in[55]
*197 la_data_in[56]
*198 la_data_in[57]
*199 la_data_in[58]
*200 la_data_in[59]
*201 la_data_in[5]
*202 la_data_in[60]
*203 la_data_in[61]
*204 la_data_in[62]
*205 la_data_in[63]
*206 la_data_in[64]
*207 la_data_in[65]
*208 la_data_in[66]
*209 la_data_in[67]
*210 la_data_in[68]
*211 la_data_in[69]
*212 la_data_in[6]
*213 la_data_in[70]
*214 la_data_in[71]
*215 la_data_in[72]
*216 la_data_in[73]
*217 la_data_in[74]
*218 la_data_in[75]
*219 la_data_in[76]
*220 la_data_in[77]
*221 la_data_in[78]
*222 la_data_in[79]
*223 la_data_in[7]
*224 la_data_in[80]
*225 la_data_in[81]
*226 la_data_in[82]
*227 la_data_in[83]
*228 la_data_in[84]
*229 la_data_in[85]
*230 la_data_in[86]
*231 la_data_in[87]
*232 la_data_in[88]
*233 la_data_in[89]
*234 la_data_in[8]
*235 la_data_in[90]
*236 la_data_in[91]
*237 la_data_in[92]
*238 la_data_in[93]
*239 la_data_in[94]
*240 la_data_in[95]
*241 la_data_in[96]
*242 la_data_in[97]
*243 la_data_in[98]
*244 la_data_in[99]
*245 la_data_in[9]
*246 la_data_out[0]
*247 la_data_out[100]
*248 la_data_out[101]
*249 la_data_out[102]
*250 la_data_out[103]
*251 la_data_out[104]
*252 la_data_out[105]
*253 la_data_out[106]
*254 la_data_out[107]
*255 la_data_out[108]
*256 la_data_out[109]
*257 la_data_out[10]
*258 la_data_out[110]
*259 la_data_out[111]
*260 la_data_out[112]
*261 la_data_out[113]
*262 la_data_out[114]
*263 la_data_out[115]
*264 la_data_out[116]
*265 la_data_out[117]
*266 la_data_out[118]
*267 la_data_out[119]
*268 la_data_out[11]
*269 la_data_out[120]
*270 la_data_out[121]
*271 la_data_out[122]
*272 la_data_out[123]
*273 la_data_out[124]
*274 la_data_out[125]
*275 la_data_out[126]
*276 la_data_out[127]
*277 la_data_out[12]
*278 la_data_out[13]
*279 la_data_out[14]
*280 la_data_out[15]
*281 la_data_out[16]
*282 la_data_out[17]
*283 la_data_out[18]
*284 la_data_out[19]
*285 la_data_out[1]
*286 la_data_out[20]
*287 la_data_out[21]
*288 la_data_out[22]
*289 la_data_out[23]
*290 la_data_out[24]
*291 la_data_out[25]
*292 la_data_out[26]
*293 la_data_out[27]
*294 la_data_out[28]
*295 la_data_out[29]
*296 la_data_out[2]
*297 la_data_out[30]
*298 la_data_out[31]
*299 la_data_out[32]
*300 la_data_out[33]
*301 la_data_out[34]
*302 la_data_out[35]
*303 la_data_out[36]
*304 la_data_out[37]
*305 la_data_out[38]
*306 la_data_out[39]
*307 la_data_out[3]
*308 la_data_out[40]
*309 la_data_out[41]
*310 la_data_out[42]
*311 la_data_out[43]
*312 la_data_out[44]
*313 la_data_out[45]
*314 la_data_out[46]
*315 la_data_out[47]
*316 la_data_out[48]
*317 la_data_out[49]
*318 la_data_out[4]
*319 la_data_out[50]
*320 la_data_out[51]
*321 la_data_out[52]
*322 la_data_out[53]
*323 la_data_out[54]
*324 la_data_out[55]
*325 la_data_out[56]
*326 la_data_out[57]
*327 la_data_out[58]
*328 la_data_out[59]
*329 la_data_out[5]
*330 la_data_out[60]
*331 la_data_out[61]
*332 la_data_out[62]
*333 la_data_out[63]
*334 la_data_out[64]
*335 la_data_out[65]
*336 la_data_out[66]
*337 la_data_out[67]
*338 la_data_out[68]
*339 la_data_out[69]
*340 la_data_out[6]
*341 la_data_out[70]
*342 la_data_out[71]
*343 la_data_out[72]
*344 la_data_out[73]
*345 la_data_out[74]
*346 la_data_out[75]
*347 la_data_out[76]
*348 la_data_out[77]
*349 la_data_out[78]
*350 la_data_out[79]
*351 la_data_out[7]
*352 la_data_out[80]
*353 la_data_out[81]
*354 la_data_out[82]
*355 la_data_out[83]
*356 la_data_out[84]
*357 la_data_out[85]
*358 la_data_out[86]
*359 la_data_out[87]
*360 la_data_out[88]
*361 la_data_out[89]
*362 la_data_out[8]
*363 la_data_out[90]
*364 la_data_out[91]
*365 la_data_out[92]
*366 la_data_out[93]
*367 la_data_out[94]
*368 la_data_out[95]
*369 la_data_out[96]
*370 la_data_out[97]
*371 la_data_out[98]
*372 la_data_out[99]
*373 la_data_out[9]
*374 la_oenb[0]
*375 la_oenb[100]
*376 la_oenb[101]
*377 la_oenb[102]
*378 la_oenb[103]
*379 la_oenb[104]
*380 la_oenb[105]
*381 la_oenb[106]
*382 la_oenb[107]
*383 la_oenb[108]
*384 la_oenb[109]
*385 la_oenb[10]
*386 la_oenb[110]
*387 la_oenb[111]
*388 la_oenb[112]
*389 la_oenb[113]
*390 la_oenb[114]
*391 la_oenb[115]
*392 la_oenb[116]
*393 la_oenb[117]
*394 la_oenb[118]
*395 la_oenb[119]
*396 la_oenb[11]
*397 la_oenb[120]
*398 la_oenb[121]
*399 la_oenb[122]
*400 la_oenb[123]
*401 la_oenb[124]
*402 la_oenb[125]
*403 la_oenb[126]
*404 la_oenb[127]
*405 la_oenb[12]
*406 la_oenb[13]
*407 la_oenb[14]
*408 la_oenb[15]
*409 la_oenb[16]
*410 la_oenb[17]
*411 la_oenb[18]
*412 la_oenb[19]
*413 la_oenb[1]
*414 la_oenb[20]
*415 la_oenb[21]
*416 la_oenb[22]
*417 la_oenb[23]
*418 la_oenb[24]
*419 la_oenb[25]
*420 la_oenb[26]
*421 la_oenb[27]
*422 la_oenb[28]
*423 la_oenb[29]
*424 la_oenb[2]
*425 la_oenb[30]
*426 la_oenb[31]
*427 la_oenb[32]
*428 la_oenb[33]
*429 la_oenb[34]
*430 la_oenb[35]
*431 la_oenb[36]
*432 la_oenb[37]
*433 la_oenb[38]
*434 la_oenb[39]
*435 la_oenb[3]
*436 la_oenb[40]
*437 la_oenb[41]
*438 la_oenb[42]
*439 la_oenb[43]
*440 la_oenb[44]
*441 la_oenb[45]
*442 la_oenb[46]
*443 la_oenb[47]
*444 la_oenb[48]
*445 la_oenb[49]
*446 la_oenb[4]
*447 la_oenb[50]
*448 la_oenb[51]
*449 la_oenb[52]
*450 la_oenb[53]
*451 la_oenb[54]
*452 la_oenb[55]
*453 la_oenb[56]
*454 la_oenb[57]
*455 la_oenb[58]
*456 la_oenb[59]
*457 la_oenb[5]
*458 la_oenb[60]
*459 la_oenb[61]
*460 la_oenb[62]
*461 la_oenb[63]
*462 la_oenb[64]
*463 la_oenb[65]
*464 la_oenb[66]
*465 la_oenb[67]
*466 la_oenb[68]
*467 la_oenb[69]
*468 la_oenb[6]
*469 la_oenb[70]
*470 la_oenb[71]
*471 la_oenb[72]
*472 la_oenb[73]
*473 la_oenb[74]
*474 la_oenb[75]
*475 la_oenb[76]
*476 la_oenb[77]
*477 la_oenb[78]
*478 la_oenb[79]
*479 la_oenb[7]
*480 la_oenb[80]
*481 la_oenb[81]
*482 la_oenb[82]
*483 la_oenb[83]
*484 la_oenb[84]
*485 la_oenb[85]
*486 la_oenb[86]
*487 la_oenb[87]
*488 la_oenb[88]
*489 la_oenb[89]
*490 la_oenb[8]
*491 la_oenb[90]
*492 la_oenb[91]
*493 la_oenb[92]
*494 la_oenb[93]
*495 la_oenb[94]
*496 la_oenb[95]
*497 la_oenb[96]
*498 la_oenb[97]
*499 la_oenb[98]
*500 la_oenb[99]
*501 la_oenb[9]
*502 ncs
*505 wb_clk_i
*506 wb_rst_i
*507 wbs_ack_o
*508 wbs_adr_i[0]
*509 wbs_adr_i[10]
*510 wbs_adr_i[11]
*511 wbs_adr_i[12]
*512 wbs_adr_i[13]
*513 wbs_adr_i[14]
*514 wbs_adr_i[15]
*515 wbs_adr_i[16]
*516 wbs_adr_i[17]
*517 wbs_adr_i[18]
*518 wbs_adr_i[19]
*519 wbs_adr_i[1]
*520 wbs_adr_i[20]
*521 wbs_adr_i[21]
*522 wbs_adr_i[22]
*523 wbs_adr_i[23]
*524 wbs_adr_i[24]
*525 wbs_adr_i[25]
*526 wbs_adr_i[26]
*527 wbs_adr_i[27]
*528 wbs_adr_i[28]
*529 wbs_adr_i[29]
*530 wbs_adr_i[2]
*531 wbs_adr_i[30]
*532 wbs_adr_i[31]
*533 wbs_adr_i[3]
*534 wbs_adr_i[4]
*535 wbs_adr_i[5]
*536 wbs_adr_i[6]
*537 wbs_adr_i[7]
*538 wbs_adr_i[8]
*539 wbs_adr_i[9]
*540 wbs_cyc_i
*541 wbs_dat_i[0]
*542 wbs_dat_i[10]
*543 wbs_dat_i[11]
*544 wbs_dat_i[12]
*545 wbs_dat_i[13]
*546 wbs_dat_i[14]
*547 wbs_dat_i[15]
*548 wbs_dat_i[16]
*549 wbs_dat_i[17]
*550 wbs_dat_i[18]
*551 wbs_dat_i[19]
*552 wbs_dat_i[1]
*553 wbs_dat_i[20]
*554 wbs_dat_i[21]
*555 wbs_dat_i[22]
*556 wbs_dat_i[23]
*557 wbs_dat_i[24]
*558 wbs_dat_i[25]
*559 wbs_dat_i[26]
*560 wbs_dat_i[27]
*561 wbs_dat_i[28]
*562 wbs_dat_i[29]
*563 wbs_dat_i[2]
*564 wbs_dat_i[30]
*565 wbs_dat_i[31]
*566 wbs_dat_i[3]
*567 wbs_dat_i[4]
*568 wbs_dat_i[5]
*569 wbs_dat_i[6]
*570 wbs_dat_i[7]
*571 wbs_dat_i[8]
*572 wbs_dat_i[9]
*573 wbs_dat_o[0]
*574 wbs_dat_o[10]
*575 wbs_dat_o[11]
*576 wbs_dat_o[12]
*577 wbs_dat_o[13]
*578 wbs_dat_o[14]
*579 wbs_dat_o[15]
*580 wbs_dat_o[16]
*581 wbs_dat_o[17]
*582 wbs_dat_o[18]
*583 wbs_dat_o[19]
*584 wbs_dat_o[1]
*585 wbs_dat_o[20]
*586 wbs_dat_o[21]
*587 wbs_dat_o[22]
*588 wbs_dat_o[23]
*589 wbs_dat_o[24]
*590 wbs_dat_o[25]
*591 wbs_dat_o[26]
*592 wbs_dat_o[27]
*593 wbs_dat_o[28]
*594 wbs_dat_o[29]
*595 wbs_dat_o[2]
*596 wbs_dat_o[30]
*597 wbs_dat_o[31]
*598 wbs_dat_o[3]
*599 wbs_dat_o[4]
*600 wbs_dat_o[5]
*601 wbs_dat_o[6]
*602 wbs_dat_o[7]
*603 wbs_dat_o[8]
*604 wbs_dat_o[9]
*605 wbs_sel_i[0]
*606 wbs_sel_i[1]
*607 wbs_sel_i[2]
*608 wbs_sel_i[3]
*609 wbs_stb_i
*610 wbs_we_i
*613 _0000_
*614 _0001_
*615 _0002_
*616 _0003_
*617 _0004_
*618 _0005_
*619 _0006_
*620 _0007_
*621 _0008_
*622 _0009_
*623 _0010_
*624 _0011_
*625 _0012_
*626 _0013_
*627 _0014_
*628 _0015_
*629 _0016_
*630 _0017_
*631 _0018_
*632 _0019_
*633 _0020_
*634 _0021_
*635 _0022_
*636 _0023_
*637 _0024_
*638 _0025_
*639 _0026_
*640 _0027_
*641 _0028_
*642 _0029_
*643 _0030_
*644 _0031_
*645 _0032_
*646 _0033_
*647 _0034_
*648 _0035_
*649 _0036_
*650 _0037_
*651 _0038_
*652 _0039_
*653 _0040_
*654 _0041_
*655 _0042_
*656 _0043_
*657 _0044_
*658 _0045_
*659 _0046_
*660 _0047_
*661 _0048_
*662 _0049_
*663 _0050_
*664 _0051_
*665 _0052_
*666 _0053_
*667 _0054_
*668 _0055_
*669 _0056_
*670 _0057_
*671 _0058_
*672 _0059_
*673 _0060_
*674 _0061_
*675 _0062_
*676 _0063_
*677 _0064_
*678 _0065_
*679 _0066_
*680 _0067_
*681 _0068_
*682 _0069_
*683 _0070_
*684 _0071_
*685 _0072_
*686 _0073_
*687 _0074_
*688 _0075_
*689 _0076_
*690 _0077_
*691 _0078_
*692 _0079_
*693 _0080_
*694 _0081_
*695 _0082_
*696 _0083_
*697 _0084_
*698 _0085_
*699 _0086_
*700 _0087_
*701 _0088_
*702 _0089_
*703 _0090_
*704 _0091_
*705 _0092_
*706 _0093_
*707 _0094_
*708 _0095_
*709 _0096_
*710 _0097_
*711 _0098_
*712 _0099_
*713 _0100_
*714 _0101_
*715 _0102_
*716 _0103_
*717 _0104_
*718 _0105_
*719 _0106_
*720 _0107_
*721 _0108_
*722 _0109_
*723 _0110_
*724 _0111_
*725 _0112_
*726 _0113_
*727 _0114_
*728 _0115_
*729 _0116_
*730 _0117_
*731 _0118_
*732 _0119_
*733 _0120_
*734 _0121_
*735 _0122_
*736 _0123_
*737 _0124_
*738 _0125_
*739 _0126_
*740 _0127_
*741 _0128_
*742 _0129_
*743 _0130_
*744 _0131_
*745 _0132_
*746 _0133_
*747 _0134_
*748 _0135_
*749 _0136_
*750 _0137_
*751 _0138_
*752 _0139_
*753 _0140_
*754 _0141_
*755 _0142_
*756 _0143_
*757 _0144_
*758 _0145_
*759 _0146_
*760 _0147_
*761 _0148_
*762 _0149_
*763 _0150_
*764 _0151_
*765 _0152_
*766 _0153_
*767 _0154_
*768 _0155_
*769 _0156_
*770 _0157_
*771 _0158_
*772 _0159_
*773 _0160_
*774 _0161_
*775 _0162_
*776 _0163_
*777 _0164_
*778 _0165_
*779 _0166_
*780 _0167_
*781 _0168_
*782 _0169_
*783 _0170_
*784 _0171_
*785 _0172_
*786 _0173_
*787 _0174_
*788 _0175_
*789 _0176_
*790 _0177_
*791 _0178_
*792 _0179_
*793 _0180_
*794 _0181_
*795 _0182_
*796 _0183_
*797 _0184_
*798 _0185_
*799 _0186_
*800 _0187_
*801 _0188_
*802 _0189_
*803 _0190_
*804 _0191_
*805 _0192_
*806 _0193_
*807 _0194_
*808 _0195_
*809 _0196_
*810 _0197_
*811 _0198_
*812 _0199_
*813 _0200_
*814 _0201_
*815 _0202_
*816 _0203_
*817 _0204_
*818 _0205_
*819 _0206_
*820 _0207_
*821 _0208_
*822 _0209_
*823 _0210_
*824 _0211_
*825 _0212_
*826 _0213_
*827 _0214_
*828 _0215_
*829 _0216_
*830 _0217_
*831 _0218_
*832 _0219_
*833 _0220_
*834 _0221_
*835 _0222_
*836 _0223_
*837 _0224_
*838 _0225_
*839 _0226_
*840 _0227_
*841 _0228_
*842 _0229_
*843 _0230_
*844 _0231_
*845 _0232_
*846 _0233_
*847 _0234_
*848 _0235_
*849 _0236_
*850 _0237_
*851 _0238_
*852 _0239_
*853 _0240_
*854 _0241_
*855 _0242_
*856 _0243_
*857 _0244_
*858 _0245_
*859 _0246_
*860 _0247_
*861 _0248_
*862 _0249_
*863 _0250_
*864 _0251_
*865 _0252_
*866 _0253_
*867 _0254_
*868 _0255_
*869 _0256_
*870 _0257_
*871 _0258_
*872 _0259_
*873 _0260_
*874 _0261_
*875 _0262_
*876 _0263_
*877 _0264_
*878 _0265_
*879 _0266_
*880 _0267_
*881 _0268_
*882 _0269_
*883 _0270_
*884 _0271_
*885 _0272_
*886 _0273_
*887 _0274_
*888 _0275_
*889 _0276_
*890 _0277_
*891 _0278_
*892 _0279_
*893 _0280_
*894 _0281_
*895 _0282_
*896 _0283_
*897 _0284_
*898 _0285_
*899 _0286_
*900 _0287_
*901 _0288_
*902 _0289_
*903 _0290_
*904 _0291_
*905 _0292_
*906 _0293_
*907 _0294_
*908 _0295_
*909 _0296_
*910 _0297_
*911 _0298_
*912 _0299_
*913 _0300_
*914 _0301_
*915 _0302_
*916 _0303_
*917 _0304_
*918 _0305_
*919 _0306_
*920 _0307_
*921 _0308_
*922 _0309_
*923 _0310_
*924 _0311_
*925 _0312_
*926 _0313_
*927 _0314_
*928 _0315_
*929 _0316_
*930 _0317_
*931 _0318_
*932 _0319_
*933 _0320_
*934 _0321_
*935 _0322_
*936 _0323_
*937 _0324_
*938 _0325_
*939 _0326_
*940 _0327_
*941 _0328_
*942 _0329_
*943 _0330_
*944 _0331_
*945 _0332_
*946 _0333_
*947 _0334_
*948 _0335_
*949 _0336_
*950 _0337_
*951 _0338_
*952 _0339_
*953 _0340_
*954 _0341_
*955 _0342_
*956 _0343_
*957 _0344_
*958 _0345_
*959 _0346_
*960 _0347_
*961 _0348_
*962 _0349_
*963 _0350_
*964 _0351_
*965 _0352_
*966 _0353_
*967 _0354_
*968 _0355_
*969 _0356_
*970 _0357_
*971 _0358_
*972 _0359_
*973 _0360_
*974 _0361_
*975 _0362_
*976 _0363_
*977 _0364_
*978 _0365_
*979 _0366_
*980 _0367_
*981 _0368_
*982 _0369_
*983 _0370_
*984 _0371_
*985 _0372_
*986 _0373_
*987 _0374_
*988 _0375_
*989 _0376_
*990 _0377_
*991 _0378_
*992 _0379_
*993 _0380_
*994 _0381_
*995 _0382_
*996 _0383_
*997 _0384_
*998 _0385_
*999 _0386_
*1000 _0387_
*1001 _0388_
*1002 _0389_
*1003 _0390_
*1004 _0391_
*1005 _0392_
*1006 _0393_
*1007 _0394_
*1008 _0395_
*1009 _0396_
*1010 _0397_
*1011 _0398_
*1012 _0399_
*1013 _0400_
*1014 _0401_
*1015 _0402_
*1016 _0403_
*1017 _0404_
*1018 _0405_
*1019 _0406_
*1020 _0407_
*1021 _0408_
*1022 _0409_
*1023 _0410_
*1024 _0411_
*1025 _0412_
*1026 _0413_
*1027 _0414_
*1028 _0415_
*1029 _0416_
*1030 _0417_
*1031 _0418_
*1032 _0419_
*1033 _0420_
*1034 _0421_
*1035 _0422_
*1036 _0423_
*1037 _0424_
*1038 _0425_
*1039 _0426_
*1040 _0427_
*1041 _0428_
*1042 _0429_
*1043 _0430_
*1044 _0431_
*1045 _0432_
*1046 _0433_
*1047 _0434_
*1048 _0435_
*1049 _0436_
*1050 _0437_
*1051 _0438_
*1052 _0439_
*1053 _0440_
*1054 _0441_
*1055 _0442_
*1056 _0443_
*1057 _0444_
*1058 _0445_
*1059 _0446_
*1060 _0447_
*1061 _0448_
*1062 _0449_
*1063 _0450_
*1064 _0451_
*1065 _0452_
*1066 _0453_
*1067 _0454_
*1068 _0455_
*1069 _0456_
*1070 _0457_
*1071 _0458_
*1072 _0459_
*1073 _0460_
*1074 _0461_
*1075 _0462_
*1076 _0463_
*1077 _0464_
*1078 _0465_
*1079 _0466_
*1080 _0467_
*1081 _0468_
*1082 _0469_
*1083 _0470_
*1084 _0471_
*1085 _0472_
*1086 _0473_
*1087 _0474_
*1088 _0475_
*1089 _0476_
*1090 _0477_
*1091 _0478_
*1092 _0479_
*1093 _0480_
*1094 _0481_
*1095 _0482_
*1096 _0483_
*1097 _0484_
*1098 _0485_
*1099 _0486_
*1100 _0487_
*1101 _0488_
*1102 _0489_
*1103 _0490_
*1104 _0491_
*1105 _0492_
*1106 _0493_
*1107 _0494_
*1108 _0495_
*1109 _0496_
*1110 _0497_
*1111 _0498_
*1112 _0499_
*1113 _0500_
*1114 _0501_
*1115 _0502_
*1116 _0503_
*1117 _0504_
*1118 _0505_
*1119 _0506_
*1120 _0507_
*1121 _0508_
*1122 _0509_
*1123 _0510_
*1124 _0511_
*1125 _0512_
*1126 _0513_
*1127 _0514_
*1128 _0515_
*1129 _0516_
*1130 _0517_
*1131 _0518_
*1132 _0519_
*1133 _0520_
*1134 _0521_
*1135 _0522_
*1136 _0523_
*1137 _0524_
*1138 _0525_
*1139 _0526_
*1140 _0527_
*1141 _0528_
*1142 _0529_
*1143 _0530_
*1144 _0531_
*1145 _0532_
*1146 _0533_
*1147 _0534_
*1148 _0535_
*1149 _0536_
*1150 _0537_
*1151 _0538_
*1152 _0539_
*1153 _0540_
*1154 _0541_
*1155 _0542_
*1156 _0543_
*1157 _0544_
*1158 _0545_
*1159 _0546_
*1160 _0547_
*1161 _0548_
*1162 _0549_
*1163 _0550_
*1164 _0551_
*1165 _0552_
*1166 _0553_
*1167 _0554_
*1168 _0555_
*1169 _0556_
*1170 _0557_
*1171 _0558_
*1172 _0559_
*1173 _0560_
*1174 _0561_
*1175 _0562_
*1176 _0563_
*1177 _0564_
*1178 _0565_
*1179 _0566_
*1180 _0567_
*1181 _0568_
*1182 _0569_
*1183 _0570_
*1184 _0571_
*1185 _0572_
*1186 _0573_
*1187 _0574_
*1188 _0575_
*1189 _0576_
*1190 _0577_
*1191 _0578_
*1192 _0579_
*1193 _0580_
*1194 _0581_
*1195 _0582_
*1196 _0583_
*1197 _0584_
*1198 _0585_
*1199 _0586_
*1200 _0587_
*1201 _0588_
*1202 _0589_
*1203 _0590_
*1204 _0591_
*1205 _0592_
*1206 _0593_
*1207 _0594_
*1208 _0595_
*1209 _0596_
*1210 _0597_
*1211 _0598_
*1212 _0599_
*1213 _0600_
*1214 _0601_
*1215 _0602_
*1216 _0603_
*1217 _0604_
*1218 _0605_
*1219 _0606_
*1220 _0607_
*1221 _0608_
*1222 _0609_
*1223 _0610_
*1224 _0611_
*1225 _0612_
*1226 _0613_
*1227 _0614_
*1228 _0615_
*1229 _0616_
*1230 _0617_
*1231 _0618_
*1232 _0619_
*1233 _0620_
*1234 _0621_
*1235 _0622_
*1236 _0623_
*1237 _0624_
*1238 _0625_
*1239 _0626_
*1240 _0627_
*1241 _0628_
*1242 _0629_
*1243 _0630_
*1244 _0631_
*1245 _0632_
*1246 _0633_
*1247 _0634_
*1248 _0635_
*1249 _0636_
*1250 _0637_
*1251 _0638_
*1252 _0639_
*1253 _0640_
*1254 _0641_
*1255 _0642_
*1256 _0643_
*1257 _0644_
*1258 _0645_
*1259 _0646_
*1260 _0647_
*1261 _0648_
*1262 _0649_
*1263 _0650_
*1264 _0651_
*1265 _0652_
*1266 _0653_
*1267 _0654_
*1268 _0655_
*1269 _0656_
*1270 _0657_
*1271 _0658_
*1272 _0659_
*1273 _0660_
*1274 _0661_
*1275 _0662_
*1276 _0663_
*1277 _0664_
*1278 _0665_
*1279 _0666_
*1280 _0667_
*1281 _0668_
*1282 _0669_
*1283 _0670_
*1284 _0671_
*1285 _0672_
*1286 _0673_
*1287 _0674_
*1288 _0675_
*1289 _0676_
*1290 _0677_
*1291 _0678_
*1292 _0679_
*1293 _0680_
*1294 _0681_
*1295 _0682_
*1296 _0683_
*1297 _0684_
*1298 _0685_
*1299 _0686_
*1300 _0687_
*1301 _0688_
*1302 _0689_
*1303 _0690_
*1304 _0691_
*1305 _0692_
*1306 _0693_
*1307 _0694_
*1308 _0695_
*1309 _0696_
*1310 _0697_
*1311 _0698_
*1312 _0699_
*1313 _0700_
*1314 _0701_
*1315 _0702_
*1316 _0703_
*1317 _0704_
*1318 _0705_
*1319 _0706_
*1320 _0707_
*1321 _0708_
*1322 _0709_
*1323 _0710_
*1324 _0711_
*1325 _0712_
*1326 _0713_
*1327 _0714_
*1328 _0715_
*1329 _0716_
*1330 _0717_
*1331 _0718_
*1332 _0719_
*1333 _0720_
*1334 _0721_
*1335 _0722_
*1336 _0723_
*1337 _0724_
*1338 _0725_
*1339 _0726_
*1340 _0727_
*1341 _0728_
*1342 _0729_
*1343 _0730_
*1344 _0731_
*1345 _0732_
*1346 _0733_
*1347 _0734_
*1348 _0735_
*1349 _0736_
*1350 _0737_
*1351 _0738_
*1352 _0739_
*1353 _0740_
*1354 _0741_
*1355 _0742_
*1356 _0743_
*1357 _0744_
*1358 _0745_
*1359 _0746_
*1360 _0747_
*1361 _0748_
*1362 _0749_
*1363 _0750_
*1364 _0751_
*1365 _0752_
*1366 _0753_
*1367 _0754_
*1368 _0755_
*1369 _0756_
*1370 _0757_
*1371 _0758_
*1372 _0759_
*1373 _0760_
*1374 _0761_
*1375 _0762_
*1376 _0763_
*1377 _0764_
*1378 _0765_
*1379 _0766_
*1380 _0767_
*1381 _0768_
*1382 _0769_
*1383 _0770_
*1384 _0771_
*1385 _0772_
*1386 _0773_
*1387 _0774_
*1388 _0775_
*1389 _0776_
*1390 _0777_
*1391 _0778_
*1392 _0779_
*1393 _0780_
*1394 _0781_
*1395 _0782_
*1396 _0783_
*1397 _0784_
*1398 _0785_
*1399 _0786_
*1400 _0787_
*1401 _0788_
*1402 _0789_
*1403 _0790_
*1404 _0791_
*1405 _0792_
*1406 _0793_
*1407 _0794_
*1408 _0795_
*1409 _0796_
*1410 _0797_
*1411 _0798_
*1412 _0799_
*1413 _0800_
*1414 _0801_
*1415 _0802_
*1416 _0803_
*1417 _0804_
*1418 _0805_
*1419 _0806_
*1420 _0807_
*1421 _0808_
*1422 _0809_
*1423 _0810_
*1424 _0811_
*1425 _0812_
*1426 _0813_
*1427 _0814_
*1428 _0815_
*1429 _0816_
*1430 _0817_
*1431 _0818_
*1432 _0819_
*1433 _0820_
*1434 _0821_
*1435 _0822_
*1436 _0823_
*1437 _0824_
*1438 _0825_
*1439 _0826_
*1440 _0827_
*1441 _0828_
*1442 _0829_
*1443 _0830_
*1444 _0831_
*1445 _0832_
*1446 _0833_
*1447 _0834_
*1448 _0835_
*1449 _0836_
*1450 _0837_
*1451 _0838_
*1452 _0839_
*1453 _0840_
*1454 _0841_
*1455 _0842_
*1456 _0843_
*1457 _0844_
*1458 _0845_
*1459 _0846_
*1460 _0847_
*1461 _0848_
*1462 _0849_
*1463 _0850_
*1464 _0851_
*1465 _0852_
*1466 _0853_
*1467 _0854_
*1468 _0855_
*1469 _0856_
*1470 _0857_
*1471 _0858_
*1472 _0859_
*1473 _0860_
*1474 _0861_
*1475 _0862_
*1476 _0863_
*1477 _0864_
*1478 _0865_
*1479 _0866_
*1480 _0867_
*1481 _0868_
*1482 _0869_
*1483 _0870_
*1484 _0871_
*1485 _0872_
*1486 _0873_
*1487 _0874_
*1488 _0875_
*1489 _0876_
*1490 _0877_
*1491 _0878_
*1492 _0879_
*1493 _0880_
*1494 _0881_
*1495 _0882_
*1496 _0883_
*1497 _0884_
*1498 _0885_
*1499 _0886_
*1500 _0887_
*1501 _0888_
*1502 _0889_
*1503 _0890_
*1504 _0891_
*1505 _0892_
*1506 _0893_
*1507 _0894_
*1508 _0895_
*1509 _0896_
*1510 _0897_
*1511 _0898_
*1512 _0899_
*1513 _0900_
*1514 _0901_
*1515 _0902_
*1516 _0903_
*1517 _0904_
*1518 _0905_
*1519 _0906_
*1520 _0907_
*1521 _0908_
*1522 _0909_
*1523 _0910_
*1524 _0911_
*1525 _0912_
*1526 _0913_
*1527 _0914_
*1528 _0915_
*1529 _0916_
*1530 _0917_
*1531 _0918_
*1532 _0919_
*1533 _0920_
*1534 _0921_
*1535 _0922_
*1536 _0923_
*1537 _0924_
*1538 _0925_
*1539 _0926_
*1540 _0927_
*1541 _0928_
*1542 _0929_
*1543 _0930_
*1544 _0931_
*1545 _0932_
*1546 _0933_
*1547 _0934_
*1548 _0935_
*1549 _0936_
*1550 _0937_
*1551 _0938_
*1552 _0939_
*1553 _0940_
*1554 _0941_
*1555 _0942_
*1556 _0943_
*1557 _0944_
*1558 _0945_
*1559 _0946_
*1560 _0947_
*1561 _0948_
*1562 _0949_
*1563 _0950_
*1564 _0951_
*1565 _0952_
*1566 _0953_
*1567 _0954_
*1568 _0955_
*1569 _0956_
*1570 _0957_
*1571 _0958_
*1572 _0959_
*1573 _0960_
*1574 _0961_
*1575 _0962_
*1576 _0963_
*1577 _0964_
*1578 _0965_
*1579 _0966_
*1580 _0967_
*1581 _0968_
*1582 _0969_
*1583 _0970_
*1584 _0971_
*1585 _0972_
*1586 _0973_
*1587 _0974_
*1588 _0975_
*1589 _0976_
*1590 _0977_
*1591 _0978_
*1592 _0979_
*1593 _0980_
*1594 _0981_
*1595 _0982_
*1596 _0983_
*1597 _0984_
*1598 _0985_
*1599 _0986_
*1600 _0987_
*1601 _0988_
*1602 _0989_
*1603 _0990_
*1604 _0991_
*1605 _0992_
*1606 _0993_
*1607 _0994_
*1608 _0995_
*1609 _0996_
*1610 _0997_
*1611 _0998_
*1612 _0999_
*1613 _1000_
*1614 _1001_
*1615 _1002_
*1616 _1003_
*1617 _1004_
*1618 _1005_
*1619 _1006_
*1620 _1007_
*1621 _1008_
*1622 _1009_
*1623 _1010_
*1624 _1011_
*1625 _1012_
*1626 _1013_
*1627 _1014_
*1628 _1015_
*1629 _1016_
*1630 _1017_
*1631 _1018_
*1632 _1019_
*1633 _1020_
*1634 _1021_
*1635 _1022_
*1636 _1023_
*1637 _1024_
*1638 _1025_
*1639 _1026_
*1640 _1027_
*1641 _1028_
*1642 _1029_
*1643 _1030_
*1644 _1031_
*1645 _1032_
*1646 _1033_
*1647 _1034_
*1648 _1035_
*1649 _1036_
*1650 _1037_
*1651 _1038_
*1652 _1039_
*1653 _1040_
*1654 _1041_
*1655 _1042_
*1656 _1043_
*1657 _1044_
*1658 _1045_
*1659 _1046_
*1660 _1047_
*1661 _1048_
*1662 _1049_
*1663 _1050_
*1664 _1051_
*1665 _1052_
*1666 _1053_
*1667 _1054_
*1668 _1055_
*1669 _1056_
*1670 _1057_
*1671 _1058_
*1672 _1059_
*1673 _1060_
*1674 _1061_
*1675 _1062_
*1676 _1063_
*1677 _1064_
*1678 _1065_
*1679 _1066_
*1680 _1067_
*1681 _1068_
*1682 _1069_
*1683 _1070_
*1684 _1071_
*1685 _1072_
*1686 _1073_
*1687 _1074_
*1688 _1075_
*1689 _1076_
*1690 _1077_
*1691 _1078_
*1692 _1079_
*1693 _1080_
*1694 _1081_
*1695 _1082_
*1696 _1083_
*1697 _1084_
*1698 _1085_
*1699 _1086_
*1700 _1087_
*1701 _1088_
*1702 _1089_
*1703 _1090_
*1704 _1091_
*1705 _1092_
*1706 _1093_
*1707 _1094_
*1708 _1095_
*1709 _1096_
*1710 _1097_
*1711 _1098_
*1712 _1099_
*1713 _1100_
*1714 _1101_
*1715 _1102_
*1716 _1103_
*1717 _1104_
*1718 _1105_
*1719 _1106_
*1720 _1107_
*1721 _1108_
*1722 _1109_
*1723 _1110_
*1724 _1111_
*1725 _1112_
*1726 _1113_
*1727 _1114_
*1728 _1115_
*1729 _1116_
*1730 _1117_
*1731 _1118_
*1732 _1119_
*1733 _1120_
*1734 _1121_
*1735 _1122_
*1736 _1123_
*1737 _1124_
*1738 _1125_
*1739 _1126_
*1740 _1127_
*1741 _1128_
*1742 _1129_
*1743 _1130_
*1744 _1131_
*1745 _1132_
*1746 _1133_
*1747 _1134_
*1748 _1135_
*1749 _1136_
*1750 _1137_
*1751 _1138_
*1752 _1139_
*1753 _1140_
*1754 _1141_
*1755 _1142_
*1756 _1143_
*1757 _1144_
*1758 _1145_
*1759 _1146_
*1760 _1147_
*1761 _1148_
*1762 _1149_
*1763 _1150_
*1764 _1151_
*1765 _1152_
*1766 _1153_
*1767 _1154_
*1768 _1155_
*1769 _1156_
*1770 _1157_
*1771 _1158_
*1772 _1159_
*1773 _1160_
*1774 _1161_
*1775 _1162_
*1776 _1163_
*1777 _1164_
*1778 _1165_
*1779 _1166_
*1780 _1167_
*1781 _1168_
*1782 _1169_
*1783 _1170_
*1784 _1171_
*1785 _1172_
*1786 _1173_
*1787 _1174_
*1788 _1175_
*1789 _1176_
*1790 _1177_
*1791 _1178_
*1792 _1179_
*1793 _1180_
*1794 _1181_
*1795 _1182_
*1796 _1183_
*1797 _1184_
*1798 _1185_
*1799 _1186_
*1800 _1187_
*1801 _1188_
*1802 _1189_
*1803 _1190_
*1804 _1191_
*1805 _1192_
*1806 _1193_
*1807 _1194_
*1808 _1195_
*1809 _1196_
*1810 _1197_
*1811 _1198_
*1812 _1199_
*1813 _1200_
*1814 _1201_
*1815 _1202_
*1816 _1203_
*1817 _1204_
*1818 _1205_
*1819 _1206_
*1820 _1207_
*1821 _1208_
*1822 _1209_
*1823 _1210_
*1824 _1211_
*1825 _1212_
*1826 _1213_
*1827 _1214_
*1828 _1215_
*1829 _1216_
*1830 _1217_
*1831 _1218_
*1832 _1219_
*1833 _1220_
*1834 _1221_
*1835 _1222_
*1836 _1223_
*1837 _1224_
*1838 _1225_
*1839 _1226_
*1840 _1227_
*1841 _1228_
*1842 _1229_
*1843 _1230_
*1844 _1231_
*1845 _1232_
*1846 _1233_
*1847 _1234_
*1848 _1235_
*1849 _1236_
*1850 _1237_
*1851 _1238_
*1852 _1239_
*1853 _1240_
*1854 _1241_
*1855 _1242_
*1856 _1243_
*1857 _1244_
*1858 _1245_
*1859 _1246_
*1860 _1247_
*1861 _1248_
*1862 _1249_
*1863 _1250_
*1864 _1251_
*1865 _1252_
*1866 _1253_
*1867 _1254_
*1868 _1255_
*1869 _1256_
*1870 _1257_
*1871 _1258_
*1872 _1259_
*1873 _1260_
*1874 _1261_
*1875 _1262_
*1876 _1263_
*1877 _1264_
*1878 _1265_
*1879 _1266_
*1880 _1267_
*1881 _1268_
*1882 _1269_
*1883 _1270_
*1884 _1271_
*1885 _1272_
*1886 _1273_
*1887 _1274_
*1888 _1275_
*1889 _1276_
*1890 _1277_
*1891 _1278_
*1892 _1279_
*1893 _1280_
*1894 _1281_
*1895 _1282_
*1896 _1283_
*1897 _1284_
*1898 _1285_
*1899 _1286_
*1900 _1287_
*1901 _1288_
*1902 _1289_
*1903 _1290_
*1904 _1291_
*1905 _1292_
*1906 _1293_
*1907 _1294_
*1908 _1295_
*1909 _1296_
*1910 _1297_
*1911 _1298_
*1912 _1299_
*1913 _1300_
*1914 _1301_
*1915 _1302_
*1916 _1303_
*1917 _1304_
*1918 _1305_
*1919 _1306_
*1920 _1307_
*1921 _1308_
*1922 _1309_
*1923 _1310_
*1924 _1311_
*1925 _1312_
*1926 _1313_
*1927 _1314_
*1928 _1315_
*1929 _1316_
*1930 _1317_
*1931 _1318_
*1932 _1319_
*1933 _1320_
*1934 _1321_
*1935 _1322_
*1936 _1323_
*1937 _1324_
*1938 _1325_
*1939 _1326_
*1940 _1327_
*1941 _1328_
*1942 _1329_
*1943 _1330_
*1944 _1331_
*1945 _1332_
*1946 _1333_
*1947 _1334_
*1948 _1335_
*1949 _1336_
*1950 _1337_
*1951 _1338_
*1952 _1339_
*1953 _1340_
*1954 _1341_
*1955 _1342_
*1956 _1343_
*1957 _1344_
*1958 _1345_
*1959 _1346_
*1960 _1347_
*1961 _1348_
*1962 _1349_
*1963 _1350_
*1964 _1351_
*1965 _1352_
*1966 _1353_
*1967 _1354_
*1968 _1355_
*1969 _1356_
*1970 _1357_
*1971 _1358_
*1972 _1359_
*1973 _1360_
*1974 _1361_
*1975 _1362_
*1976 _1363_
*1977 _1364_
*1978 _1365_
*1979 _1366_
*1980 _1367_
*1981 _1368_
*1982 _1369_
*1983 _1370_
*1984 _1371_
*1985 _1372_
*1986 _1373_
*1987 _1374_
*1988 _1375_
*1989 _1376_
*1990 _1377_
*1991 _1378_
*1992 clknet_0_team_10_WB\.clk
*1993 clknet_0_wb_clk_i
*1994 clknet_1_0__leaf_wb_clk_i
*1995 clknet_1_1__leaf_wb_clk_i
*1996 clknet_3_0__leaf_team_10_WB\.clk
*1997 clknet_3_1__leaf_team_10_WB\.clk
*1998 clknet_3_2__leaf_team_10_WB\.clk
*1999 clknet_3_3__leaf_team_10_WB\.clk
*2000 clknet_3_4__leaf_team_10_WB\.clk
*2001 clknet_3_5__leaf_team_10_WB\.clk
*2002 clknet_3_6__leaf_team_10_WB\.clk
*2003 clknet_3_7__leaf_team_10_WB\.clk
*2004 clknet_leaf_0_team_10_WB\.clk
*2005 clknet_leaf_10_team_10_WB\.clk
*2006 clknet_leaf_11_team_10_WB\.clk
*2007 clknet_leaf_12_team_10_WB\.clk
*2008 clknet_leaf_13_team_10_WB\.clk
*2009 clknet_leaf_14_team_10_WB\.clk
*2010 clknet_leaf_15_team_10_WB\.clk
*2011 clknet_leaf_16_team_10_WB\.clk