*SPEF "ieee 1481-1999"
*DESIGN "team_11"
*DATE "12:51:15 Wednesday August 28, 2024"
*VENDOR "The OpenROAD Project"
*PROGRAM "OpenROAD"
*VERSION "b16bda7e82721d10566ff7e2b68f1ff0be9f9e38"
*DESIGN_FLOW "NAME_SCOPE LOCAL" "PIN_CAP NONE"
*DIVIDER /
*DELIMITER :
*BUS_DELIMITER []
*T_UNIT 1 NS
*C_UNIT 1 PF
*R_UNIT 1 OHM
*L_UNIT 1 HENRY

*NAME_MAP
*1 clk
*2 en
*3 gpio_in[0]
*4 gpio_in[10]
*5 gpio_in[11]
*6 gpio_in[12]
*7 gpio_in[13]
*8 gpio_in[14]
*9 gpio_in[15]
*10 gpio_in[16]
*11 gpio_in[17]
*12 gpio_in[18]
*13 gpio_in[19]
*14 gpio_in[1]
*15 gpio_in[20]
*16 gpio_in[21]
*17 gpio_in[22]
*18 gpio_in[23]
*19 gpio_in[24]
*20 gpio_in[25]
*21 gpio_in[26]
*22 gpio_in[27]
*23 gpio_in[28]
*24 gpio_in[29]
*25 gpio_in[2]
*26 gpio_in[30]
*27 gpio_in[31]
*28 gpio_in[32]
*29 gpio_in[33]
*30 gpio_in[3]
*31 gpio_in[4]
*32 gpio_in[5]
*33 gpio_in[6]
*34 gpio_in[7]
*35 gpio_in[8]
*36 gpio_in[9]
*37 gpio_oeb[0]
*38 gpio_oeb[10]
*39 gpio_oeb[11]
*40 gpio_oeb[12]
*41 gpio_oeb[13]
*42 gpio_oeb[14]
*43 gpio_oeb[15]
*44 gpio_oeb[16]
*45 gpio_oeb[17]
*46 gpio_oeb[18]
*47 gpio_oeb[19]
*48 gpio_oeb[1]
*49 gpio_oeb[20]
*50 gpio_oeb[21]
*51 gpio_oeb[22]
*52 gpio_oeb[23]
*53 gpio_oeb[24]
*54 gpio_oeb[25]
*55 gpio_oeb[26]
*56 gpio_oeb[27]
*57 gpio_oeb[28]
*58 gpio_oeb[29]
*59 gpio_oeb[2]
*60 gpio_oeb[30]
*61 gpio_oeb[31]
*62 gpio_oeb[32]
*63 gpio_oeb[33]
*64 gpio_oeb[3]
*65 gpio_oeb[4]
*66 gpio_oeb[5]
*67 gpio_oeb[6]
*68 gpio_oeb[7]
*69 gpio_oeb[8]
*70 gpio_oeb[9]
*71 gpio_out[0]
*72 gpio_out[10]
*73 gpio_out[11]
*74 gpio_out[12]
*75 gpio_out[13]
*76 gpio_out[14]
*77 gpio_out[15]
*78 gpio_out[16]
*79 gpio_out[17]
*80 gpio_out[18]
*81 gpio_out[19]
*82 gpio_out[1]
*83 gpio_out[20]
*84 gpio_out[21]
*85 gpio_out[22]
*86 gpio_out[23]
*87 gpio_out[24]
*88 gpio_out[25]
*89 gpio_out[26]
*90 gpio_out[27]
*91 gpio_out[28]
*92 gpio_out[29]
*93 gpio_out[2]
*94 gpio_out[30]
*95 gpio_out[31]
*96 gpio_out[32]
*97 gpio_out[33]
*98 gpio_out[3]
*99 gpio_out[4]
*100 gpio_out[5]
*101 gpio_out[6]
*102 gpio_out[7]
*103 gpio_out[8]
*104 gpio_out[9]
*105 nrst
*108 _0000_
*109 _0001_
*110 _0002_
*111 _0003_
*112 _0004_
*113 _0005_
*114 _0006_
*115 _0007_
*116 _0008_
*117 _0009_
*118 _0010_
*119 _0011_
*120 _0012_
*121 _0013_
*122 _0014_
*123 _0015_
*124 _0016_
*125 _0017_
*126 _0018_
*127 _0019_
*128 _0020_
*129 _0021_
*130 _0022_
*131 _0023_
*132 _0024_
*133 _0025_
*134 _0026_
*135 _0027_
*136 _0028_
*137 _0029_
*138 _0030_
*139 _0031_
*140 _0032_
*141 _0033_
*142 _0034_
*143 _0035_
*144 _0036_
*145 _0037_
*146 _0038_
*147 _0039_
*148 _0040_
*149 _0041_
*150 _0042_
*151 _0043_
*152 _0044_
*153 _0045_
*154 _0046_
*155 _0047_
*156 _0048_
*157 _0049_
*158 _0050_
*159 _0051_
*160 _0052_
*161 _0053_
*162 _0054_
*163 _0055_
*164 _0056_
*165 _0057_
*166 _0058_
*167 _0059_
*168 _0060_
*169 _0061_
*170 _0062_
*171 _0063_
*172 _0064_
*173 _0065_
*174 _0066_
*175 _0067_
*176 _0068_
*177 _0069_
*178 _0070_
*179 _0071_
*180 _0072_
*181 _0073_
*182 _0074_
*183 _0075_
*184 _0076_
*185 _0077_
*186 _0078_
*187 _0079_
*188 _0080_
*189 _0081_
*190 _0082_
*191 _0083_
*192 _0084_
*193 _0085_
*194 _0086_
*195 _0087_
*196 _0088_
*197 _0089_
*198 _0090_
*199 _0091_
*200 _0092_
*201 _0093_
*202 _0094_
*203 _0095_
*204 _0096_
*205 _0097_
*206 _0098_
*207 _0099_
*208 _0100_
*209 _0101_
*210 _0102_
*211 _0103_
*212 _0104_
*213 _0105_
*214 _0106_
*215 _0107_
*216 _0108_
*217 _0109_
*218 _0110_
*219 _0111_
*220 _0112_
*221 _0113_
*222 _0114_
*223 _0115_
*224 _0116_
*225 _0117_
*226 _0118_
*227 _0119_
*228 _0120_
*229 _0121_
*230 _0122_
*231 _0123_
*232 _0124_
*233 _0125_
*234 _0126_
*235 _0127_
*236 _0128_
*237 _0129_
*238 _0130_
*239 _0131_
*240 _0132_
*241 _0133_
*242 _0134_
*243 _0135_
*244 _0136_
*245 _0137_
*246 _0138_
*247 _0139_
*248 _0140_
*249 _0141_
*250 _0142_
*251 _0143_
*252 _0144_
*253 _0145_
*254 _0146_
*255 _0147_
*256 _0148_
*257 _0149_
*258 _0150_
*259 _0151_
*260 _0152_
*261 _0153_
*262 _0154_
*263 _0155_
*264 _0156_
*265 _0157_
*266 _0158_
*267 _0159_
*268 _0160_
*269 _0161_
*270 _0162_
*271 _0163_
*272 _0164_
*273 _0165_
*274 _0166_
*275 _0167_
*276 _0168_
*277 _0169_
*278 _0170_
*279 _0171_
*280 _0172_
*281 _0173_
*282 _0174_
*283 _0175_
*284 _0176_
*285 _0177_
*286 _0178_
*287 _0179_
*288 _0180_
*289 _0181_
*290 _0182_
*291 _0183_
*292 _0184_
*293 _0185_
*294 _0186_
*295 _0187_
*296 _0188_
*297 _0189_
*298 _0190_
*299 _0191_
*300 _0192_
*301 _0193_
*302 _0194_
*303 _0195_
*304 _0196_
*305 _0197_
*306 _0198_
*307 _0199_
*308 _0200_
*309 _0201_
*310 _0202_
*311 _0203_
*312 _0204_
*313 _0205_
*314 _0206_
*315 _0207_
*316 _0208_
*317 _0209_
*318 _0210_
*319 _0211_
*320 _0212_
*321 _0213_
*322 _0214_
*323 _0215_
*324 _0216_
*325 _0217_
*326 _0218_
*327 _0219_
*328 _0220_
*329 _0221_
*330 _0222_
*331 _0223_
*332 _0224_
*333 _0225_
*334 _0226_
*335 _0227_
*336 _0228_
*337 _0229_
*338 _0230_
*339 _0231_
*340 _0232_
*341 _0233_
*342 _0234_
*343 _0235_
*344 _0236_
*345 _0237_
*346 _0238_
*347 _0239_
*348 _0240_
*349 _0241_
*350 _0242_
*351 _0243_
*352 _0244_
*353 _0245_
*354 _0246_
*355 _0247_
*356 _0248_
*357 _0249_
*358 _0250_
*359 _0251_
*360 _0252_
*361 _0253_
*362 _0254_
*363 _0255_
*364 _0256_
*365 _0257_
*366 _0258_
*367 _0259_
*368 _0260_
*369 _0261_
*370 _0262_
*371 _0263_
*372 _0264_
*373 _0265_
*374 _0266_
*375 _0267_
*376 _0268_
*377 _0269_
*378 _0270_
*379 _0271_
*380 _0272_
*381 _0273_
*382 _0274_
*383 _0275_
*384 _0276_
*385 _0277_
*386 _0278_
*387 _0279_
*388 _0280_
*389 _0281_
*390 _0282_
*391 _0283_
*392 _0284_
*393 _0285_
*394 _0286_
*395 _0287_
*396 _0288_
*397 _0289_
*398 _0290_
*399 _0291_
*400 _0292_
*401 _0293_
*402 _0294_
*403 _0295_
*404 _0296_
*405 _0297_
*406 _0298_
*407 _0299_
*408 _0300_
*409 _0301_
*410 _0302_
*411 _0303_
*412 _0304_
*413 _0305_
*414 _0306_
*415 _0307_
*416 _0308_
*417 _0309_
*418 _0310_
*419 _0311_
*420 _0312_
*421 _0313_
*422 _0314_
*423 _0315_
*424 _0316_
*425 _0317_
*426 _0318_
*427 _0319_
*428 _0320_
*429 _0321_
*430 _0322_
*431 _0323_
*432 _0324_
*433 _0325_
*434 _0326_
*435 _0327_
*436 _0328_
*437 _0329_
*438 _0330_
*439 _0331_
*440 _0332_
*441 _0333_
*442 _0334_
*443 _0335_
*444 _0336_
*445 _0337_
*446 _0338_
*447 _0339_
*448 _0340_
*449 _0341_
*450 _0342_
*451 _0343_
*452 _0344_
*453 _0345_
*454 _0346_
*455 _0347_
*456 _0348_
*457 _0349_
*458 _0350_
*459 _0351_
*460 _0352_
*461 _0353_
*462 _0354_
*463 _0355_
*464 _0356_
*465 _0357_
*466 _0358_
*467 _0359_
*468 _0360_
*469 _0361_
*470 _0362_
*471 _0363_
*472 _0364_
*473 _0365_
*474 _0366_
*475 _0367_
*476 _0368_
*477 _0369_
*478 _0370_
*479 _0371_
*480 _0372_
*481 _0373_
*482 _0374_
*483 _0375_
*484 _0376_
*485 _0377_
*486 _0378_
*487 _0379_
*488 _0380_
*489 _0381_
*490 _0382_
*491 _0383_
*492 _0384_
*493 _0385_
*494 _0386_
*495 _0387_
*496 _0388_
*497 _0389_
*498 _0390_
*499 _0391_
*500 _0392_
*501 _0393_
*502 _0394_
*503 _0395_
*504 _0396_
*505 _0397_
*506 _0398_
*507 _0399_
*508 _0400_
*509 _0401_
*510 _0402_
*511 _0403_
*512 _0404_
*513 _0405_
*514 _0406_
*515 _0407_
*516 _0408_
*517 _0409_
*518 _0410_
*519 _0411_
*520 _0412_
*521 _0413_
*522 _0414_
*523 _0415_
*524 _0416_
*525 _0417_
*526 _0418_
*527 _0419_
*528 _0420_
*529 _0421_
*530 _0422_
*531 _0423_
*532 _0424_
*533 _0425_
*534 _0426_
*535 _0427_
*536 _0428_
*537 _0429_
*538 _0430_
*539 _0431_
*540 _0432_
*541 _0433_
*542 _0434_
*543 _0435_
*544 _0436_
*545 _0437_
*546 _0438_
*547 _0439_
*548 _0440_
*549 _0441_
*550 _0442_
*551 _0443_
*552 _0444_
*553 _0445_
*554 _0446_
*555 _0447_
*556 _0448_
*557 _0449_
*558 _0450_
*559 _0451_
*560 _0452_
*561 _0453_
*562 _0454_
*563 _0455_
*564 _0456_
*565 _0457_
*566 _0458_
*567 _0459_
*568 _0460_
*569 _0461_
*570 _0462_
*571 _0463_
*572 _0464_
*573 _0465_
*574 _0466_
*575 _0467_
*576 _0468_
*577 _0469_
*578 _0470_
*579 _0471_
*580 _0472_
*581 _0473_
*582 _0474_
*583 _0475_
*584 _0476_
*585 _0477_
*586 _0478_
*587 _0479_
*588 _0480_
*589 _0481_
*590 _0482_
*591 _0483_
*592 _0484_
*593 _0485_
*594 _0486_
*595 _0487_
*596 _0488_
*597 _0489_
*598 _0490_
*599 _0491_
*600 _0492_
*601 _0493_
*602 _0494_
*603 _0495_
*604 _0496_
*605 _0497_
*606 _0498_
*607 _0499_
*608 _0500_
*609 _0501_
*610 _0502_
*611 _0503_
*612 _0504_
*613 _0505_
*614 _0506_
*615 _0507_
*616 _0508_
*617 _0509_
*618 _0510_
*619 _0511_
*620 _0512_
*621 _0513_
*622 _0514_
*623 _0515_
*624 _0516_
*625 _0517_
*626 _0518_
*627 _0519_
*628 _0520_
*629 _0521_
*630 _0522_
*631 _0523_
*632 _0524_
*633 _0525_
*634 _0526_
*635 _0527_
*636 _0528_
*637 _0529_
*638 _0530_
*639 _0531_
*640 _0532_
*641 _0533_
*642 _0534_
*643 _0535_
*644 _0536_
*645 _0537_
*646 _0538_
*647 _0539_
*648 _0540_
*649 _0541_
*650 _0542_
*651 _0543_
*652 _0544_
*653 _0545_
*654 _0546_
*655 _0547_
*656 _0548_
*657 _0549_
*658 _0550_
*659 _0551_
*660 _0552_
*661 _0553_
*662 _0554_
*663 _0555_
*664 _0556_
*665 _0557_
*666 _0558_
*667 _0559_
*668 _0560_
*669 _0561_
*670 _0562_
*671 _0563_
*672 _0564_
*673 _0565_
*674 _0566_
*675 _0567_
*676 _0568_
*677 _0569_
*678 _0570_
*679 _0571_
*680 _0572_
*681 _0573_
*682 _0574_
*683 _0575_
*684 _0576_
*685 _0577_
*686 _0578_
*687 _0579_
*688 _0580_
*689 _0581_
*690 _0582_
*691 _0583_
*692 _0584_
*693 _0585_
*694 _0586_
*695 _0587_
*696 _0588_
*697 _0589_
*698 _0590_
*699 _0591_
*700 _0592_
*701 _0593_
*702 _0594_
*703 _0595_
*704 _0596_
*705 _0597_
*706 _0598_
*707 _0599_
*708 _0600_
*709 _0601_
*710 _0602_
*711 _0603_
*712 _0604_
*713 _0605_
*714 _0606_
*715 _0607_
*716 _0608_
*717 _0609_
*718 _0610_
*719 _0611_
*720 _0612_
*721 _0613_
*722 _0614_
*723 _0615_
*724 _0616_
*725 _0617_
*726 _0618_
*727 _0619_
*728 _0620_
*729 _0621_
*730 _0622_
*731 _0623_
*732 _0624_
*733 _0625_
*734 _0626_
*735 _0627_
*736 _0628_
*737 _0629_
*738 _0630_
*739 _0631_
*740 _0632_
*741 _0633_
*742 _0634_
*743 _0635_
*744 _0636_
*745 _0637_
*746 _0638_
*747 _0639_
*748 _0640_
*749 _0641_
*750 _0642_
*751 _0643_
*752 _0644_
*753 _0645_
*754 _0646_
*755 _0647_
*756 _0648_
*757 _0649_
*758 _0650_
*759 _0651_
*760 _0652_
*761 _0653_
*762 _0654_
*763 _0655_
*764 _0656_
*765 _0657_
*766 _0658_
*767 _0659_
*768 _0660_
*769 _0661_
*770 _0662_
*771 _0663_
*772 _0664_
*773 _0665_
*774 _0666_
*775 _0667_
*776 _0668_
*777 _0669_
*778 _0670_
*779 _0671_
*780 _0672_
*781 _0673_
*782 _0674_
*783 _0675_
*784 _0676_
*785 _0677_
*786 _0678_
*787 _0679_
*788 _0680_
*789 _0681_
*790 _0682_
*791 _0683_
*792 _0684_
*793 _0685_
*794 _0686_
*795 _0687_
*796 _0688_
*797 _0689_
*798 _0690_
*799 _0691_
*800 _0692_
*801 _0693_
*802 _0694_
*803 _0695_
*804 _0696_
*805 _0697_
*806 _0698_
*807 _0699_
*808 _0700_
*809 _0701_
*810 _0702_
*811 _0703_
*812 _0704_
*813 _0705_
*814 _0706_
*815 _0707_
*816 _0708_
*817 _0709_
*818 _0710_
*819 _0711_
*820 _0712_
*821 _0713_
*822 _0714_
*823 _0715_
*824 _0716_
*825 _0717_
*826 _0718_
*827 _0719_
*828 _0720_
*829 _0721_
*830 clknet_0_clk
*831 clknet_1_0__leaf_clk
*832 clknet_1_1__leaf_clk
*833 clknet_leaf_0_clk
*834 clknet_leaf_10_clk
*835 clknet_leaf_11_clk
*836 clknet_leaf_12_clk
*837 clknet_leaf_13_clk
*838 clknet_leaf_14_clk
*839 clknet_leaf_15_clk
*840 clknet_leaf_16_clk
*841 clknet_leaf_17_clk
*842 clknet_leaf_18_clk
*843 clknet_leaf_19_clk
*844 clknet_leaf_1_clk
*845 clknet_leaf_20_clk
*846 clknet_leaf_21_clk
*847 clknet_leaf_22_clk
*848 clknet_leaf_23_clk
*849 clknet_leaf_24_clk
*850 clknet_leaf_25_clk
*851 clknet_leaf_2_clk
*852 clknet_leaf_3_clk
*853 clknet_leaf_4_clk
*854 clknet_leaf_5_clk
*855 clknet_leaf_6_clk
*856 clknet_leaf_7_clk
*857 clknet_leaf_8_clk
*858 clknet_leaf_9_clk
*859 kp\.buffertop\.keycode\[0\]
*860 kp\.buffertop\.keycode\[1\]
*861 kp\.buffertop\.keycode\[2\]
*862 kp\.buffertop\.keycode\[3\]
*863 kp\.buffertop\.keycode\[4\]
*864 kp\.buffertop\.keycode\[5\]
*865 kp\.buffertop\.keycode\[6\]
*866 kp\.buffertop\.keycode\[7\]
*867 kp\.buffertop\.keycode_previous\[0\]
*868 kp\.buffertop\.keycode_previous\[1\]
*869 kp\.buffertop\.keycode_previous\[2\]
*870 kp\.buffertop\.keycode_previous\[3\]
*871 kp\.buffertop\.keycode_previous\[4\]
*872 kp\.buffertop\.keycode_previous\[5\]
*873 kp\.buffertop\.keycode_previous\[6\]
*874 kp\.buffertop\.keycode_previous\[7\]
*875 kp\.buffertop\.nrst
*876 kp\.clkdivtop\.count\[0\]
*877 kp\.clkdivtop\.count\[10\]
*878 kp\.clkdivtop\.count\[11\]
*879 kp\.clkdivtop\.count\[12\]
*880 kp\.clkdivtop\.count\[13\]
*881 kp\.clkdivtop\.count\[14\]
*882 kp\.clkdivtop\.count\[15\]
*883 kp\.clkdivtop\.count\[16\]
*884 kp\.clkdivtop\.count\[17\]
*885 kp\.clkdivtop\.count\[18\]
*886 kp\.clkdivtop\.count\[19\]
*887 kp\.clkdivtop\.count\[1\]
*888 kp\.clkdivtop\.count\[20\]
*889 kp\.clkdivtop\.count\[21\]
*890 kp\.clkdivtop\.count\[22\]
*891 kp\.clkdivtop\.count\[23\]
*892 kp\.clkdivtop\.count\[24\]
*893 kp\.clkdivtop\.count\[25\]
*894 kp\.clkdivtop\.count\[26\]
*895 kp\.clkdivtop\.count\[27\]
*896 kp\.clkdivtop\.count\[28\]
*897 kp\.clkdivtop\.count\[29\]
*898 kp\.clkdivtop\.count\[2\]
*899 kp\.clkdivtop\.count\[3\]
*900 kp\.clkdivtop\.count\[4\]
*901 kp\.clkdivtop\.count\[5\]
*902 kp\.clkdivtop\.count\[6\]
*903 kp\.clkdivtop\.count\[7\]
*904 kp\.clkdivtop\.count\[8\]
*905 kp\.clkdivtop\.count\[9\]
*906 kp\.clkdivtop\.next_count\[0\]
*907 kp\.clkdivtop\.next_count\[10\]
*908 kp\.clkdivtop\.next_count\[11\]
*909 kp\.clkdivtop\.next_count\[12\]
*910 kp\.clkdivtop\.next_count\[13\]
*911 kp\.clkdivtop\.next_count\[14\]
*912 kp\.clkdivtop\.next_count\[15\]
*913 kp\.clkdivtop\.next_count\[16\]
*914 kp\.clkdivtop\.next_count\[17\]
*915 kp\.clkdivtop\.next_count\[18\]
*916 kp\.clkdivtop\.next_count\[19\]
*917 kp\.clkdivtop\.next_count\[1\]
*918 kp\.clkdivtop\.next_count\[20\]
*919 kp\.clkdivtop\.next_count\[21\]
*920 kp\.clkdivtop\.next_count\[22\]
*921 kp\.clkdivtop\.next_count\[23\]
*922 kp\.clkdivtop\.next_count\[24\]
*923 kp\.clkdivtop\.next_count\[25\]
*924 kp\.clkdivtop\.next_count\[26\]
*925 kp\.clkdivtop\.next_count\[27\]
*926 kp\.clkdivtop\.next_count\[28\]
*927 kp\.clkdivtop\.next_count\[29\]
*928 kp\.clkdivtop\.next_count\[2\]
*929 kp\.clkdivtop\.next_count\[3\]
*930 kp\.clkdivtop\.next_count\[4\]
*931 kp\.clkdivtop\.next_count\[5\]
*932 kp\.clkdivtop\.next_count\[6\]
*933 kp\.clkdivtop\.next_count\[7\]
*934 kp\.clkdivtop\.next_count\[8\]
*935 kp\.clkdivtop\.next_count\[9\]
*936 kp\.controlstop\.mode
*937 kp\.controlstop\.msg_tx_ctrl
*938 kp\.controlstop\.next_msg_tx_ctrl
*939 kp\.controlstop\.previous_key_count\[0\]
*940 kp\.controlstop\.previous_key_count\[1\]
*941 kp\.controlstop\.previous_key_count\[2\]
*942 kp\.controlstop\.previous_key_count\[3\]
*943 kp\.controlstop\.upper
*944 kp\.debouncertop\.keyvalid
*945 kp\.debouncertop\.next_receive_ready
*946 kp\.debouncertop\.receive_ready
*947 kp\.decodertop\.data_received\[0\]
*948 kp\.decodertop\.data_received\[100\]
*949 kp\.decodertop\.data_received\[101\]
*950 kp\.decodertop\.data_received\[102\]
*951 kp\.decodertop\.data_received\[103\]
*952 kp\.decodertop\.data_received\[104\]
*953 kp\.decodertop\.data_received\[105\]
*954 kp\.decodertop\.data_received\[106\]
*955 kp\.decodertop\.data_received\[107\]
*956 kp\.decodertop\.data_received\[108\]
*957 kp\.decodertop\.data_received\[109\]
*958 kp\.decodertop\.data_received\[10\]
*959 kp\.decodertop\.data_received\[110\]
*960 kp\.decodertop\.data_received\[111\]
*961 kp\.decodertop\.data_received\[112\]
*962 kp\.decodertop\.data_received\[113\]
*963 kp\.decodertop\.data_received\[114\]
*964 kp\.decodertop\.data_received\[115\]
*965 kp\.decodertop\.data_received\[116\]
*966 kp\.decodertop\.data_received\[117\]
*967 kp\.decodertop\.data_received\[118\]
*968 kp\.decodertop\.data_received\[119\]
*969 kp\.decodertop\.data_received\[11\]
*970 kp\.decodertop\.data_received\[120\]
*971 kp\.decodertop\.data_received\[121\]
*972 kp\.decodertop\.data_received\[122\]
*973 kp\.decodertop\.data_received\[123\]
*974 kp\.decodertop\.data_received\[124\]
*975 kp\.decodertop\.data_received\[125\]
*976 kp\.decodertop\.data_received\[126\]
*977 kp\.decodertop\.data_received\[127\]
*978 kp\.decodertop\.data_received\[12\]
*979 kp\.decodertop\.data_received\[13\]
*980 kp\.decodertop\.data_received\[14\]
*981 kp\.decodertop\.data_received\[15\]
*982 kp\.decodertop\.data_received\[16\]
*983 kp\.decodertop\.data_received\[17\]
*984 kp\.decodertop\.data_received\[18\]
*985 kp\.decodertop\.data_received\[19\]
*986 kp\.decodertop\.data_received\[1\]
*987 kp\.decodertop\.data_received\[20\]
*988 kp\.decodertop\.data_received\[21\]
*989 kp\.decodertop\.data_received\[22\]
*990 kp\.decodertop\.data_received\[23\]
*991 kp\.decodertop\.data_received\[24\]
*992 kp\.decodertop\.data_received\[25\]
*993 kp\.decodertop\.data_received\[26\]
*994 kp\.decodertop\.data_received\[27\]
*995 kp\.decodertop\.data_received\[28\]
*996 kp\.decodertop\.data_received\[29\]
*997 kp\.decodertop\.data_received\[2\]
*998 kp\.decodertop\.data_received\[30\]
*999 kp\.decodertop\.data_received\[31\]
*1000 kp\.decodertop\.data_received\[32\]
*1001 kp\.decodertop\.data_received\[33\]
*1002 kp\.decodertop\.data_received\[34\]
*1003 kp\.decodertop\.data_received\[35\]
*1004 kp\.decodertop\.data_received\[36\]
*1005 kp\.decodertop\.data_received\[37\]
*1006 kp\.decodertop\.data_received\[38\]
*1007 kp\.decodertop\.data_received\[39\]
*1008 kp\.decodertop\.data_received\[3\]
*1009 kp\.decodertop\.data_received\[40\]
*1010 kp\.decodertop\.data_received\[41\]
*1011 kp\.decodertop\.data_received\[42\]
*1012 kp\.decodertop\.data_received\[43\]
*1013 kp\.decodertop\.data_received\[44\]
*1014 kp\.decodertop\.data_received\[45\]
*1015 kp\.decodertop\.data_received\[46\]
*1016 kp\.decodertop\.data_received\[47\]
*1017 kp\.decodertop\.data_received\[48\]
*1018 kp\.decodertop\.data_received\[49\]
*1019 kp\.decodertop\.data_received\[4\]
*1020 kp\.decodertop\.data_received\[50\]
*1021 kp\.decodertop\.data_received\[51\]
*1022 kp\.decodertop\.data_received\[52\]
*1023 kp\.decodertop\.data_received\[53\]
*1024 kp\.decodertop\.data_received\[54\]
*1025 kp\.decodertop\.data_received\[55\]
*1026 kp\.decodertop\.data_received\[56\]
*1027 kp\.decodertop\.data_received\[57\]
*1028 kp\.decodertop\.data_received\[58\]
*1029 kp\.decodertop\.data_received\[59\]
*1030 kp\.decodertop\.data_received\[5\]
*1031 kp\.decodertop\.data_received\[60\]
*1032 kp\.decodertop\.data_received\[61\]
*1033 kp\.decodertop\.data_received\[62\]
*1034 kp\.decodertop\.data_received\[63\]
*1035 kp\.decodertop\.data_received\[64\]
*1036 kp\.decodertop\.data_received\[65\]
*1037 kp\.decodertop\.data_received\[66\]
*1038 kp\.decodertop\.data_received\[67\]
*1039 kp\.decodertop\.data_received\[68\]
*1040 kp\.decodertop\.data_received\[69\]
*1041 kp\.decodertop\.data_received\[6\]
*1042 kp\.decodertop\.data_received\[70\]
*1043 kp\.decodertop\.data_received\[71\]
*1044 kp\.decodertop\.data_received\[72\]
*1045 kp\.decodertop\.data_received\[73\]
*1046 kp\.decodertop\.data_received\[74\]
*1047 kp\.decodertop\.data_received\[75\]
*1048 kp\.decodertop\.data_received\[76\]
*1049 kp\.decodertop\.data_received\[77\]
*1050 kp\.decodertop\.data_received\[78\]
*1051 kp\.decodertop\.data_received\[79\]
*1052 kp\.decodertop\.data_received\[7\]
*1053 kp\.decodertop\.data_received\[80\]
*1054 kp\.decodertop\.data_received\[81\]
*1055 kp\.decodertop\.data_received\[82\]
*1056 kp\.decodertop\.data_received\[83\]
*1057 kp\.decodertop\.data_received\[84\]
*1058 kp\.decodertop\.data_received\[85\]
*1059 kp\.decodertop\.data_received\[86\]
*1060 kp\.decodertop\.data_received\[87\]
*1061 kp\.decodertop\.data_received\[88\]
*1062 kp\.decodertop\.data_received\[89\]
*1063 kp\.decodertop\.data_received\[8\]
*1064 kp\.decodertop\.data_received\[90\]
*1065 kp\.decodertop\.data_received\[91\]
*1066 kp\.decodertop\.data_received\[92\]
*1067 kp\.decodertop\.data_received\[93\]
*1068 kp\.decodertop\.data_received\[94\]
*1069 kp\.decodertop\.data_received\[95\]
*1070 kp\.decodertop\.data_received\[96\]
*1071 kp\.decodertop\.data_received\[97\]
*1072 kp\.decodertop\.data_received\[98\]
*1073 kp\.decodertop\.data_received\[99\]
*1074 kp\.decodertop\.data_received\[9\]
*1075 kp\.keypadtop\.next_keycode\[0\]
*1076 kp\.keypadtop\.next_keycode\[1\]
*1077 kp\.keypadtop\.next_keycode\[2\]
*1078 kp\.keypadtop\.next_keycode\[3\]
*1079 kp\.keypadtop\.next_keycode\[4\]
*1080 kp\.keypadtop\.next_keycode\[5\]
*1081 kp\.keypadtop\.next_keycode\[6\]
*1082 kp\.keypadtop\.next_keycode\[7\]
*1083 kp\.keypadtop\.next_keyvalid
*1084 net1
*1085 net10
*1086 net100
*1087 net101
*1088 net102
*1089 net103
*1090 net104
*1091 net105
*1092 net106
*1093 net107
*1094 net108
*1095 net109
*1096 net11
*1097 net110
*1098 net111
*1099 net112
*1100 net113
*1101 net114
*1102 net115
*1103 net116
*1104 net117
*1105 net118
*1106 net119
*1107 net12
*1108 net120
*1109 net121
*1110 net122
*1111 net123
*1112 net124
*1113 net125
*1114 net126
*1115 net127
*1116 net128
*1117 net129
*1118 net13
*1119 net130
*1120 net131
*1121 net132
*1122 net133
*1123 net134
*1124 net135
*1125 net136
*1126 net137
*1127 net138
*1128 net139
*1129 net14
*1130 net140
*1131 net141
*1132 net142
*1133 net143
*1134 net144
*1135 net145
*1136 net146
*1137 net147
*1138 net148
*1139 net149
*1140 net15
*1141 net150
*1142 net151
*1143 net152
*1144 net153
*1145 net154
*1146 net155
*1147 net156
*1148 net157
*1149 net158
*1150 net159
*1151 net16
*1152 net160
*1153 net161
*1154 net162
*1155 net163
*1156 net164
*1157 net165
*1158 net166
*1159 net167
*1160 net168
*1161 net169
*1162 net17
*1163 net170
*1164 net171
*1165 net172
*1166 net173
*1167 net174
*1168 net175
*1169 net176
*1170 net177
*1171 net178
*1172 net179
*1173 net18
*1174 net180
*1175 net181
*1176 net182
*1177 net183
*1178 net184
*1179 net185
*1180 net186
*1181 net187
*1182 net188
*1183 net189
*1184 net19
*1185 net190
*1186 net191
*1187 net192
*1188 net193
*1189 net194
*1190 net195
*1191 net196
*1192 net197
*1193 net198
*1194 net199
*1195 net2
*1196 net20
*1197 net200
*1198 net201
*1199 net202
*1200 net203
*1201 net204
*1202 net205
*1203 net206
*1204 net207
*1205 net208
*1206 net209
*1207 net21
*1208 net210
*1209 net211
*1210 net212
*1211 net213
*1212 net214
*1213 net215
*1214 net216
*1215 net217
*1216 net218
*1217 net219
*1218 net22
*1219 net220
*1220 net221
*1221 net222
*1222 net223
*1223 net224
*1224 net225
*1225 net226
*1226 net227
*1227 net228
*1228 net229
*1229 net23
*1230 net230
*1231 net231
*1232 net232
*1233 net233
*1234 net234
*1235 net235
*1236 net236
*1237 net237
*1238 net238
*1239 net239
*1240 net24
*1241 net240
*1242 net241
*1243 net242
*1244 net243
*1245 net244
*1246 net245
*1247 net246
*1248 net247
*1249 net248
*1250 net249
*1251 net25
*1252 net250
*1253 net251
*1254 net252
*1255 net253
*1256 net254
*1257 net255
*1258 net256
*1259 net257
*1260 net258
*1261 net259
*1262 net26
*1263 net260
*1264 net261
*1265 net262
*1266 net263
*1267 net264
*1268 net265
*1269 net266
*1270 net267
*1271 net268
*1272 net269
*1273 net27
*1274 net270
*1275 net271
*1276 net272
*1277 net273
*1278 net274
*1279 net275
*1280 net276
*1281 net277
*1282 net278
*1283 net279
*1284 net28
*1285 net280
*1286 net281
*1287 net282
*1288 net283
*1289 net284
*1290 net285
*1291 net286
*1292 net287
*1293 net288
*1294 net289
*1295 net29
*1296 net290
*1297 net291
*1298 net292
*1299 net293
*1300 net294
*1301 net3
*1302 net30
*1303 net31
*1304 net32
*1305 net33
*1306 net34
*1307 net35
*1308 net36
*1309 net37
*1310 net38
*1311 net39
*1312 net4
*1313 net40
*1314 net41
*1315 net42
*1316 net43
*1317 net44
*1318 net45
*1319 net46
*1320 net47
*1321 net48
*1322 net49
*1323 net5
*1324 net50
*1325 net51
*1326 net52
*1327 net53
*1328 net54
*1329 net55
*1330 net56
*1331 net57
*1332 net58
*1333 net59
*1334 net6
*1335 net60
*1336 net61
*1337 net62
*1338 net63
*1339 net64
*1340 net65
*1341 net66
*1342 net67
*1343 net68
*1344 net69
*1345 net7
*1346 net70
*1347 net71
*1348 net72
*1349 net73
*1350 net74
*1351 net75
*1352 net76
*1353 net77
*1354 net78
*1355 net79
*1356 net8
*1357 net80
*1358 net81
*1359 net82
*1360 net83
*1361 net84
*1362 net85
*1363 net86
*1364 net87
*1365 net88
*1366 net89
*1367 net9
*1368 net90
*1369 net91
*1370 net92
*1371 net93
*1372 net94
*1373 net95
*1374 net96
*1375 net97
*1376 net98
*1377 net99
*1378 sending\.cnt_20ms\[0\]
*1379 sending\.cnt_20ms\[10\]
*1380 sending\.cnt_20ms\[11\]
*1381 sending\.cnt_20ms\[12\]
*1382 sending\.cnt_20ms\[13\]
*1383 sending\.cnt_20ms\[14\]
*1384 sending\.cnt_20ms\[15\]
*1385 sending\.cnt_20ms\[16\]
*1386 sending\.cnt_20ms\[17\]
*1387 sending\.cnt_20ms\[1\]
*1388 sending\.cnt_20ms\[2\]
*1389 sending\.cnt_20ms\[3\]
*1390 sending\.cnt_20ms\[4\]
*1391 sending\.cnt_20ms\[5\]
*1392 sending\.cnt_20ms\[6\]
*1393 sending\.cnt_20ms\[7\]
*1394 sending\.cnt_20ms\[8\]
*1395 sending\.cnt_20ms\[9\]
*1396 sending\.cnt_500hz\[0\]
*1397 sending\.cnt_500hz\[10\]
*1398 sending\.cnt_500hz\[11\]
*1399 sending\.cnt_500hz\[12\]
*1400 sending\.cnt_500hz\[13\]
*1401 sending\.cnt_500hz\[14\]
*1402 sending\.cnt_500hz\[1\]
*1403 sending\.cnt_500hz\[2\]
*1404 sending\.cnt_500hz\[3\]
*1405 sending\.cnt_500hz\[4\]
*1406 sending\.cnt_500hz\[5\]
*1407 sending\.cnt_500hz\[6\]
*1408 sending\.cnt_500hz\[7\]
*1409 sending\.cnt_500hz\[8\]
*1410 sending\.cnt_500hz\[9\]
*1411 sending\.currentState\[0\]
*1412 sending\.currentState\[1\]
*1413 sending\.currentState\[2\]
*1414 sending\.currentState\[3\]
*1415 sending\.currentState\[4\]
*1416 sending\.currentState\[5\]
*1417 sending\.lcd_en
*1418 sending\.lcd_rs
*1419 ANTENNA__0734__Y
*1420 ANTENNA__0871__X
*1421 ANTENNA__0872__B
*1422 ANTENNA__0902__X
*1423 ANTENNA__0909__A2
*1424 ANTENNA__0911__B2
*1425 ANTENNA__0915__A
*1426 ANTENNA__0915__Y
*1427 ANTENNA__0916__A
*1428 ANTENNA__0921__A
*1429 ANTENNA__0922__A
*1430 ANTENNA__0928__B1
*1431 ANTENNA__0929__A1
*1432 ANTENNA__0930__A1
*1433 ANTENNA__0930__A2
*1434 ANTENNA__0932__A2
*1435 ANTENNA__0933__B1
*1436 ANTENNA__0939__C1
*1437 ANTENNA__0941__C1
*1438 ANTENNA__0943__C1
*1439 ANTENNA__0947__A1
*1440 ANTENNA__0947__C1
*1441 ANTENNA__0948__A2
*1442 ANTENNA__0950__A2
*1443 ANTENNA__0955__C1
*1444 ANTENNA__0957__C1
*1445 ANTENNA__0960__B1
*1446 ANTENNA__0964__B1
*1447 ANTENNA__0965__B1
*1448 ANTENNA__0965__C1
*1449 ANTENNA__0971__C1
*1450 ANTENNA__0975__C1
*1451 ANTENNA__0980__A2
*1452 ANTENNA__0981__C1
*1453 ANTENNA__0992__B1
*1454 ANTENNA__0993__C1
*1455 ANTENNA__0996__A2
*1456 ANTENNA__1008__B1
*1457 ANTENNA__1012__B1
*1458 ANTENNA__1022__B1
*1459 ANTENNA__1029__C1
*1460 ANTENNA__1040__B1
*1461 ANTENNA__1045__C1
*1462 ANTENNA__1055__C1
*1463 ANTENNA__1057__C1
*1464 ANTENNA__1059__C1
*1465 ANTENNA__1073__C1
*1466 ANTENNA__1078__B1
*1467 ANTENNA__1086__B1
*1468 ANTENNA__1089__C1
*1469 ANTENNA__1094__B1
*1470 ANTENNA__1102__B1
*1471 ANTENNA__1103__C1
*1472 ANTENNA__1106__B1
*1473 ANTENNA__1118__B1
*1474 ANTENNA__1119__C1
*1475 ANTENNA__1124__B1
*1476 ANTENNA__1131__C1
*1477 ANTENNA__1135__B1
*1478 ANTENNA__1140__B1
*1479 ANTENNA__1142__B1
*1480 ANTENNA__1147__C1
*1481 ANTENNA__1156__B1
*1482 ANTENNA__1158__A2
*1483 ANTENNA__1162__A2
*1484 ANTENNA__1163__B
*1485 ANTENNA__1164__A2
*1486 ANTENNA__1172__B
*1487 ANTENNA__1185__X
*1488 ANTENNA__1195__S
*1489 ANTENNA__1200__S
*1490 ANTENNA__1201__B
*1491 ANTENNA__1206__A1
*1492 ANTENNA__1210__S
*1493 ANTENNA__1213__S
*1494 ANTENNA__1214__S
*1495 ANTENNA__1215__S
*1496 ANTENNA__1216__S
*1497 ANTENNA__1217__S
*1498 ANTENNA__1218__S
*1499 ANTENNA__1219__S
*1500 ANTENNA__1220__S
*1501 ANTENNA__1325__A1
*1502 ANTENNA__1328__A0
*1503 ANTENNA__1352__X
*1504 ANTENNA__1358__X
*1505 ANTENNA__1359__B1
*1506 ANTENNA__1360__B1
*1507 ANTENNA__1360__D1
*1508 ANTENNA__1361__A2
*1509 ANTENNA__1372__X
*1510 ANTENNA__1373__X
*1511 ANTENNA__1374__X
*1512 ANTENNA__1375__X
*1513 ANTENNA__1377__X
*1514 ANTENNA__1378__X
*1515 ANTENNA__1379__A2
*1516 ANTENNA__1379__B1
*1517 ANTENNA__1380__X
*1518 ANTENNA__1381__X
*1519 ANTENNA__1382__X
*1520 ANTENNA__1383__X
*1521 ANTENNA__1384__X
*1522 ANTENNA__1385__X
*1523 ANTENNA__1386__X
*1524 ANTENNA__1387__X
*1525 ANTENNA__1388__X
*1526 ANTENNA__1389__X
*1527 ANTENNA__1390__A2
*1528 ANTENNA__1390__B1
*1529 ANTENNA__1391__A2
*1530 ANTENNA__1391__B1
*1531 ANTENNA__1392__A2
*1532 ANTENNA__1392__B1
*1533 ANTENNA__1393__A2
*1534 ANTENNA__1393__B1
*1535 ANTENNA__1394__A2
*1536 ANTENNA__1394__B1
*1537 ANTENNA__1395__A2
*1538 ANTENNA__1395__B1
*1539 ANTENNA__1396__A2
*1540 ANTENNA__1396__B1
*1541 ANTENNA__1398__A2
*1542 ANTENNA__1399__A2
*1543 ANTENNA__1399__B1
*1544 ANTENNA__1400__A2
*1545 ANTENNA__1400__B1
*1546 ANTENNA__1401__A2
*1547 ANTENNA__1401__B1
*1548 ANTENNA__1402__A2
*1549 ANTENNA__1402__B1
*1550 ANTENNA__1403__A2
*1551 ANTENNA__1403__B1
*1552 ANTENNA__1404__A2
*1553 ANTENNA__1404__B1
*1554 ANTENNA__1405__B1
*1555 ANTENNA__1406__A2
*1556 ANTENNA__1406__B1
*1557 ANTENNA__1407__A2
*1558 ANTENNA__1407__B1
*1559 ANTENNA__1408__X
*1560 ANTENNA__1409__A2
*1561 ANTENNA__1409__B1
*1562 ANTENNA__1409__C1
*1563 ANTENNA__1410__A2
*1564 ANTENNA__1410__B1
*1565 ANTENNA__1411__A2
*1566 ANTENNA__1411__B1
*1567 ANTENNA__1412__A2
*1568 ANTENNA__1412__B1
*1569 ANTENNA__1413__A2
*1570 ANTENNA__1413__B1
*1571 ANTENNA__1414__A2
*1572 ANTENNA__1414__B1
*1573 ANTENNA__1415__A2
*1574 ANTENNA__1416__A2
*1575 ANTENNA__1416__B1
*1576 ANTENNA__1416__C1
*1577 ANTENNA__1417__A2
*1578 ANTENNA__1417__B1
*1579 ANTENNA__1418__A2
*1580 ANTENNA__1420__A2
*1581 ANTENNA__1421__A1
*1582 ANTENNA__1421__A2
*1583 ANTENNA__1421__B1
*1584 ANTENNA__1422__A2
*1585 ANTENNA__1422__B1
*1586 ANTENNA__1423__A2
*1587 ANTENNA__1423__B1
*1588 ANTENNA__1424__A2
*1589 ANTENNA__1425__B1_N
*1590 ANTENNA__1427__A2
*1591 ANTENNA__1427__B1
*1592 ANTENNA__1428__A
*1593 ANTENNA__1429__A2
*1594 ANTENNA__1429__B1
*1595 ANTENNA__1430__A2
*1596 ANTENNA__1430__B1
*1597 ANTENNA__1431__A2
*1598 ANTENNA__1431__B1
*1599 ANTENNA__1434__B1
*1600 ANTENNA__1435__A2
*1601 ANTENNA__1435__B1
*1602 ANTENNA__1436__A2
*1603 ANTENNA__1436__B1
*1604 ANTENNA__1437__A2
*1605 ANTENNA__1437__B1
*1606 ANTENNA__1438__A2
*1607 ANTENNA__1438__B1
*1608 ANTENNA__1439__A2
*1609 ANTENNA__1439__B1
*1610 ANTENNA__1440__A2
*1611 ANTENNA__1440__B1
*1612 ANTENNA__1441__A2
*1613 ANTENNA__1441__B1
*1614 ANTENNA__1442__A2
*1615 ANTENNA__1442__B1
*1616 ANTENNA__1443__A2
*1617 ANTENNA__1443__B1
*1618 ANTENNA__1445__A2
*1619 ANTENNA__1446__B
*1620 ANTENNA__1447__A2
*1621 ANTENNA__1447__B1
*1622 ANTENNA__1448__A2
*1623 ANTENNA__1448__B1