*SPEF "ieee 1481-1999"
*DESIGN "team_10"
*DATE "11:37:05 Wednesday August 28, 2024"
*VENDOR "The OpenROAD Project"
*PROGRAM "OpenROAD"
*VERSION "b16bda7e82721d10566ff7e2b68f1ff0be9f9e38"
*DESIGN_FLOW "NAME_SCOPE LOCAL" "PIN_CAP NONE"
*DIVIDER /
*DELIMITER :
*BUS_DELIMITER []
*T_UNIT 1 NS
*C_UNIT 1 PF
*R_UNIT 1 OHM
*L_UNIT 1 HENRY

*NAME_MAP
*1 clk
*2 en
*3 gpio_in[0]
*4 gpio_in[10]
*5 gpio_in[11]
*6 gpio_in[12]
*7 gpio_in[13]
*8 gpio_in[14]
*9 gpio_in[15]
*10 gpio_in[16]
*11 gpio_in[17]
*12 gpio_in[18]
*13 gpio_in[19]
*14 gpio_in[1]
*15 gpio_in[20]
*16 gpio_in[21]
*17 gpio_in[22]
*18 gpio_in[23]
*19 gpio_in[24]
*20 gpio_in[25]
*21 gpio_in[26]
*22 gpio_in[27]
*23 gpio_in[28]
*24 gpio_in[29]
*25 gpio_in[2]
*26 gpio_in[30]
*27 gpio_in[31]
*28 gpio_in[32]
*29 gpio_in[33]
*30 gpio_in[3]
*31 gpio_in[4]
*32 gpio_in[5]
*33 gpio_in[6]
*34 gpio_in[7]
*35 gpio_in[8]
*36 gpio_in[9]
*37 gpio_oeb[0]
*38 gpio_oeb[10]
*39 gpio_oeb[11]
*40 gpio_oeb[12]
*41 gpio_oeb[13]
*42 gpio_oeb[14]
*43 gpio_oeb[15]
*44 gpio_oeb[16]
*45 gpio_oeb[17]
*46 gpio_oeb[18]
*47 gpio_oeb[19]
*48 gpio_oeb[1]
*49 gpio_oeb[20]
*50 gpio_oeb[21]
*51 gpio_oeb[22]
*52 gpio_oeb[23]
*53 gpio_oeb[24]
*54 gpio_oeb[25]
*55 gpio_oeb[26]
*56 gpio_oeb[27]
*57 gpio_oeb[28]
*58 gpio_oeb[29]
*59 gpio_oeb[2]
*60 gpio_oeb[30]
*61 gpio_oeb[31]
*62 gpio_oeb[32]
*63 gpio_oeb[33]
*64 gpio_oeb[3]
*65 gpio_oeb[4]
*66 gpio_oeb[5]
*67 gpio_oeb[6]
*68 gpio_oeb[7]
*69 gpio_oeb[8]
*70 gpio_oeb[9]
*71 gpio_out[0]
*72 gpio_out[10]
*73 gpio_out[11]
*74 gpio_out[12]
*75 gpio_out[13]
*76 gpio_out[14]
*77 gpio_out[15]
*78 gpio_out[16]
*79 gpio_out[17]
*80 gpio_out[18]
*81 gpio_out[19]
*82 gpio_out[1]
*83 gpio_out[20]
*84 gpio_out[21]
*85 gpio_out[22]
*86 gpio_out[23]
*87 gpio_out[24]
*88 gpio_out[25]
*89 gpio_out[26]
*90 gpio_out[27]
*91 gpio_out[28]
*92 gpio_out[29]
*93 gpio_out[2]
*94 gpio_out[30]
*95 gpio_out[31]
*96 gpio_out[32]
*97 gpio_out[33]
*98 gpio_out[3]
*99 gpio_out[4]
*100 gpio_out[5]
*101 gpio_out[6]
*102 gpio_out[7]
*103 gpio_out[8]
*104 gpio_out[9]
*105 nrst
*108 _0000_
*109 _0001_
*110 _0002_
*111 _0003_
*112 _0004_
*113 _0005_
*114 _0006_
*115 _0007_
*116 _0008_
*117 _0009_
*118 _0010_
*119 _0011_
*120 _0012_
*121 _0013_
*122 _0014_
*123 _0015_
*124 _0016_
*125 _0017_
*126 _0018_
*127 _0019_
*128 _0020_
*129 _0021_
*130 _0022_
*131 _0023_
*132 _0024_
*133 _0025_
*134 _0026_
*135 _0027_
*136 _0028_
*137 _0029_
*138 _0030_
*139 _0031_
*140 _0032_
*141 _0033_
*142 _0034_
*143 _0035_
*144 _0036_
*145 _0037_
*146 _0038_
*147 _0039_
*148 _0040_
*149 _0041_
*150 _0042_
*151 _0043_
*152 _0044_
*153 _0045_
*154 _0046_
*155 _0047_
*156 _0048_
*157 _0049_
*158 _0050_
*159 _0051_
*160 _0052_
*161 _0053_
*162 _0054_
*163 _0055_
*164 _0056_
*165 _0057_
*166 _0058_
*167 _0059_
*168 _0060_
*169 _0061_
*170 _0062_
*171 _0063_
*172 _0064_
*173 _0065_
*174 _0066_
*175 _0067_
*176 _0068_
*177 _0069_
*178 _0070_
*179 _0071_
*180 _0072_
*181 _0073_
*182 _0074_
*183 _0075_
*184 _0076_
*185 _0077_
*186 _0078_
*187 _0079_
*188 _0080_
*189 _0081_
*190 _0082_
*191 _0083_
*192 _0084_
*193 _0085_
*194 _0086_
*195 _0087_
*196 _0088_
*197 _0089_
*198 _0090_
*199 _0091_
*200 _0092_
*201 _0093_
*202 _0094_
*203 _0095_
*204 _0096_
*205 _0097_
*206 _0098_
*207 _0099_
*208 _0100_
*209 _0101_
*210 _0102_
*211 _0103_
*212 _0104_
*213 _0105_
*214 _0106_
*215 _0107_
*216 _0108_
*217 _0109_
*218 _0110_
*219 _0111_
*220 _0112_
*221 _0113_
*222 _0114_
*223 _0115_
*224 _0116_
*225 _0117_
*226 _0118_
*227 _0119_
*228 _0120_
*229 _0121_
*230 _0122_
*231 _0123_
*232 _0124_
*233 _0125_
*234 _0126_
*235 _0127_
*236 _0128_
*237 _0129_
*238 _0130_
*239 _0131_
*240 _0132_
*241 _0133_
*242 _0134_
*243 _0135_
*244 _0136_
*245 _0137_
*246 _0138_
*247 _0139_
*248 _0140_
*249 _0141_
*250 _0142_
*251 _0143_
*252 _0144_
*253 _0145_
*254 _0146_
*255 _0147_
*256 _0148_
*257 _0149_
*258 _0150_
*259 _0151_
*260 _0152_
*261 _0153_
*262 _0154_
*263 _0155_
*264 _0156_
*265 _0157_
*266 _0158_
*267 _0159_
*268 _0160_
*269 _0161_
*270 _0162_
*271 _0163_
*272 _0164_
*273 _0165_
*274 _0166_
*275 _0167_
*276 _0168_
*277 _0169_
*278 _0170_
*279 _0171_
*280 _0172_
*281 _0173_
*282 _0174_
*283 _0175_
*284 _0176_
*285 _0177_
*286 _0178_
*287 _0179_
*288 _0180_
*289 _0181_
*290 _0182_
*291 _0183_
*292 _0184_
*293 _0185_
*294 _0186_
*295 _0187_
*296 _0188_
*297 _0189_
*298 _0190_
*299 _0191_
*300 _0192_
*301 _0193_
*302 _0194_
*303 _0195_
*304 _0196_
*305 _0197_
*306 _0198_
*307 _0199_
*308 _0200_
*309 _0201_
*310 _0202_
*311 _0203_
*312 _0204_
*313 _0205_
*314 _0206_
*315 _0207_
*316 _0208_
*317 _0209_
*318 _0210_
*319 _0211_
*320 _0212_
*321 _0213_
*322 _0214_
*323 _0215_
*324 _0216_
*325 _0217_
*326 _0218_
*327 _0219_
*328 _0220_
*329 _0221_
*330 _0222_
*331 _0223_
*332 _0224_
*333 _0225_
*334 _0226_
*335 _0227_
*336 _0228_
*337 _0229_
*338 _0230_
*339 _0231_
*340 _0232_
*341 _0233_
*342 _0234_
*343 _0235_
*344 _0236_
*345 _0237_
*346 _0238_
*347 _0239_
*348 _0240_
*349 _0241_
*350 _0242_
*351 _0243_
*352 _0244_
*353 _0245_
*354 _0246_
*355 _0247_
*356 _0248_
*357 _0249_
*358 _0250_
*359 _0251_
*360 _0252_
*361 _0253_
*362 _0254_
*363 _0255_
*364 _0256_
*365 _0257_
*366 _0258_
*367 _0259_
*368 _0260_
*369 _0261_
*370 _0262_
*371 _0263_
*372 _0264_
*373 _0265_
*374 _0266_
*375 _0267_
*376 _0268_
*377 _0269_
*378 _0270_
*379 _0271_
*380 _0272_
*381 _0273_
*382 _0274_
*383 _0275_
*384 _0276_
*385 _0277_
*386 _0278_
*387 _0279_
*388 _0280_
*389 _0281_
*390 _0282_
*391 _0283_
*392 _0284_
*393 _0285_
*394 _0286_
*395 _0287_
*396 _0288_
*397 _0289_
*398 _0290_
*399 _0291_
*400 _0292_
*401 _0293_
*402 _0294_
*403 _0295_
*404 _0296_
*405 _0297_
*406 _0298_
*407 _0299_
*408 _0300_
*409 _0301_
*410 _0302_
*411 _0303_
*412 _0304_
*413 _0305_
*414 _0306_
*415 _0307_
*416 _0308_
*417 _0309_
*418 _0310_
*419 _0311_
*420 _0312_
*421 _0313_
*422 _0314_
*423 _0315_
*424 _0316_
*425 _0317_
*426 _0318_
*427 _0319_
*428 _0320_
*429 _0321_
*430 _0322_
*431 _0323_
*432 _0324_
*433 _0325_
*434 _0326_
*435 _0327_
*436 _0328_
*437 _0329_
*438 _0330_
*439 _0331_
*440 _0332_
*441 _0333_
*442 _0334_
*443 _0335_
*444 _0336_
*445 _0337_
*446 _0338_
*447 _0339_
*448 _0340_
*449 _0341_
*450 _0342_
*451 _0343_
*452 _0344_
*453 _0345_
*454 _0346_
*455 _0347_
*456 _0348_
*457 _0349_
*458 _0350_
*459 _0351_
*460 _0352_
*461 _0353_
*462 _0354_
*463 _0355_
*464 _0356_
*465 _0357_
*466 _0358_
*467 _0359_
*468 _0360_
*469 _0361_
*470 _0362_
*471 _0363_
*472 _0364_
*473 _0365_
*474 _0366_
*475 _0367_
*476 _0368_
*477 _0369_
*478 _0370_
*479 _0371_
*480 _0372_
*481 _0373_
*482 _0374_
*483 _0375_
*484 _0376_
*485 _0377_
*486 _0378_
*487 _0379_
*488 _0380_
*489 _0381_
*490 _0382_
*491 _0383_
*492 _0384_
*493 _0385_
*494 _0386_
*495 _0387_
*496 _0388_
*497 _0389_
*498 _0390_
*499 _0391_
*500 _0392_
*501 _0393_
*502 _0394_
*503 _0395_
*504 _0396_
*505 _0397_
*506 _0398_
*507 _0399_
*508 _0400_
*509 _0401_
*510 _0402_
*511 _0403_
*512 _0404_
*513 _0405_
*514 _0406_
*515 _0407_
*516 _0408_
*517 _0409_
*518 _0410_
*519 _0411_
*520 _0412_
*521 _0413_
*522 _0414_
*523 _0415_
*524 _0416_
*525 _0417_
*526 _0418_
*527 _0419_
*528 _0420_
*529 _0421_
*530 _0422_
*531 _0423_
*532 _0424_
*533 _0425_
*534 _0426_
*535 _0427_
*536 _0428_
*537 _0429_
*538 _0430_
*539 _0431_
*540 _0432_
*541 _0433_
*542 _0434_
*543 _0435_
*544 _0436_
*545 _0437_
*546 _0438_
*547 _0439_
*548 _0440_
*549 _0441_
*550 _0442_
*551 _0443_
*552 _0444_
*553 _0445_
*554 _0446_
*555 _0447_
*556 _0448_
*557 _0449_
*558 _0450_
*559 _0451_
*560 _0452_
*561 _0453_
*562 _0454_
*563 _0455_
*564 _0456_
*565 _0457_
*566 _0458_
*567 _0459_
*568 _0460_
*569 _0461_
*570 _0462_
*571 _0463_
*572 _0464_
*573 _0465_
*574 _0466_
*575 _0467_
*576 _0468_
*577 _0469_
*578 _0470_
*579 _0471_
*580 _0472_
*581 _0473_
*582 _0474_
*583 _0475_
*584 _0476_
*585 _0477_
*586 _0478_
*587 _0479_
*588 _0480_
*589 _0481_
*590 _0482_
*591 _0483_
*592 _0484_
*593 _0485_
*594 _0486_
*595 _0487_
*596 _0488_
*597 _0489_
*598 _0490_
*599 _0491_
*600 _0492_
*601 _0493_
*602 _0494_
*603 _0495_
*604 _0496_
*605 _0497_
*606 _0498_
*607 _0499_
*608 _0500_
*609 _0501_
*610 _0502_
*611 _0503_
*612 _0504_
*613 _0505_
*614 _0506_
*615 _0507_
*616 _0508_
*617 _0509_
*618 _0510_
*619 _0511_
*620 _0512_
*621 _0513_
*622 _0514_
*623 _0515_
*624 _0516_
*625 _0517_
*626 _0518_
*627 _0519_
*628 _0520_
*629 _0521_
*630 _0522_
*631 _0523_
*632 _0524_
*633 _0525_
*634 _0526_
*635 _0527_
*636 _0528_
*637 _0529_
*638 _0530_
*639 _0531_
*640 _0532_
*641 _0533_
*642 _0534_
*643 _0535_
*644 _0536_
*645 _0537_
*646 _0538_
*647 _0539_
*648 _0540_
*649 _0541_
*650 _0542_
*651 _0543_
*652 _0544_
*653 _0545_
*654 _0546_
*655 _0547_
*656 _0548_
*657 _0549_
*658 _0550_
*659 _0551_
*660 _0552_
*661 _0553_
*662 _0554_
*663 _0555_
*664 _0556_
*665 _0557_
*666 _0558_
*667 _0559_
*668 _0560_
*669 _0561_
*670 _0562_
*671 _0563_
*672 _0564_
*673 _0565_
*674 _0566_
*675 _0567_
*676 _0568_
*677 _0569_
*678 _0570_
*679 _0571_
*680 _0572_
*681 _0573_
*682 _0574_
*683 _0575_
*684 _0576_
*685 _0577_
*686 _0578_
*687 _0579_
*688 _0580_
*689 _0581_
*690 _0582_
*691 _0583_
*692 _0584_
*693 _0585_
*694 _0586_
*695 _0587_
*696 _0588_
*697 _0589_
*698 _0590_
*699 _0591_
*700 _0592_
*701 _0593_
*702 _0594_
*703 _0595_
*704 _0596_
*705 _0597_
*706 _0598_
*707 _0599_
*708 _0600_
*709 _0601_
*710 _0602_
*711 _0603_
*712 _0604_
*713 _0605_
*714 _0606_
*715 _0607_
*716 _0608_
*717 _0609_
*718 _0610_
*719 _0611_
*720 _0612_
*721 _0613_
*722 _0614_
*723 _0615_
*724 _0616_
*725 _0617_
*726 _0618_
*727 _0619_
*728 _0620_
*729 _0621_
*730 _0622_
*731 _0623_
*732 _0624_
*733 _0625_
*734 _0626_
*735 _0627_
*736 _0628_
*737 _0629_
*738 _0630_
*739 _0631_
*740 _0632_
*741 _0633_
*742 _0634_
*743 _0635_
*744 _0636_
*745 _0637_
*746 _0638_
*747 _0639_
*748 _0640_
*749 _0641_
*750 _0642_
*751 _0643_
*752 _0644_
*753 _0645_
*754 _0646_
*755 _0647_
*756 _0648_
*757 _0649_
*758 _0650_
*759 _0651_
*760 _0652_
*761 _0653_
*762 _0654_
*763 _0655_
*764 _0656_
*765 _0657_
*766 _0658_
*767 _0659_
*768 _0660_
*769 _0661_
*770 _0662_
*771 _0663_
*772 _0664_
*773 _0665_
*774 _0666_
*775 _0667_
*776 _0668_
*777 _0669_
*778 _0670_
*779 _0671_
*780 _0672_
*781 _0673_
*782 _0674_
*783 _0675_
*784 _0676_
*785 _0677_
*786 _0678_
*787 _0679_
*788 _0680_
*789 _0681_
*790 _0682_
*791 _0683_
*792 _0684_
*793 _0685_
*794 _0686_
*795 _0687_
*796 _0688_
*797 _0689_
*798 _0690_
*799 _0691_
*800 _0692_
*801 _0693_
*802 _0694_
*803 _0695_
*804 _0696_
*805 _0697_
*806 _0698_
*807 _0699_
*808 _0700_
*809 _0701_
*810 _0702_
*811 _0703_
*812 _0704_
*813 _0705_
*814 _0706_
*815 _0707_
*816 _0708_
*817 _0709_
*818 _0710_
*819 _0711_
*820 _0712_
*821 _0713_
*822 _0714_
*823 _0715_
*824 _0716_
*825 _0717_
*826 _0718_
*827 _0719_
*828 _0720_
*829 _0721_
*830 _0722_
*831 _0723_
*832 _0724_
*833 _0725_
*834 _0726_
*835 _0727_
*836 _0728_
*837 _0729_
*838 _0730_
*839 _0731_
*840 _0732_
*841 _0733_
*842 _0734_
*843 _0735_
*844 _0736_
*845 _0737_
*846 _0738_
*847 _0739_
*848 _0740_
*849 _0741_
*850 _0742_
*851 _0743_
*852 _0744_
*853 _0745_
*854 _0746_
*855 _0747_
*856 _0748_
*857 _0749_
*858 _0750_
*859 _0751_
*860 _0752_
*861 _0753_
*862 _0754_
*863 _0755_
*864 _0756_
*865 _0757_
*866 _0758_
*867 _0759_
*868 _0760_
*869 _0761_
*870 _0762_
*871 _0763_
*872 _0764_
*873 _0765_
*874 _0766_
*875 _0767_
*876 _0768_
*877 _0769_
*878 _0770_
*879 _0771_
*880 _0772_
*881 _0773_
*882 _0774_
*883 _0775_
*884 _0776_
*885 _0777_
*886 _0778_
*887 _0779_
*888 _0780_
*889 _0781_
*890 _0782_
*891 _0783_
*892 _0784_
*893 _0785_
*894 _0786_
*895 _0787_
*896 _0788_
*897 _0789_
*898 _0790_
*899 _0791_
*900 _0792_
*901 _0793_
*902 _0794_
*903 _0795_
*904 _0796_
*905 _0797_
*906 _0798_
*907 _0799_
*908 _0800_
*909 _0801_
*910 _0802_
*911 _0803_
*912 _0804_
*913 _0805_
*914 _0806_
*915 _0807_
*916 _0808_
*917 _0809_
*918 _0810_
*919 _0811_
*920 _0812_
*921 _0813_
*922 _0814_
*923 _0815_
*924 _0816_
*925 _0817_
*926 _0818_
*927 _0819_
*928 _0820_
*929 _0821_
*930 _0822_
*931 _0823_
*932 _0824_
*933 _0825_
*934 _0826_
*935 _0827_
*936 _0828_
*937 _0829_
*938 _0830_
*939 _0831_
*940 _0832_
*941 _0833_
*942 _0834_
*943 _0835_
*944 _0836_
*945 _0837_
*946 _0838_
*947 _0839_
*948 _0840_
*949 _0841_
*950 _0842_
*951 _0843_
*952 _0844_
*953 _0845_
*954 _0846_
*955 _0847_
*956 _0848_
*957 _0849_
*958 _0850_
*959 _0851_
*960 _0852_
*961 _0853_
*962 _0854_
*963 _0855_
*964 _0856_
*965 _0857_
*966 _0858_
*967 _0859_
*968 _0860_
*969 _0861_
*970 _0862_
*971 _0863_
*972 _0864_
*973 _0865_
*974 _0866_
*975 _0867_
*976 _0868_
*977 _0869_
*978 _0870_
*979 _0871_
*980 _0872_
*981 _0873_
*982 _0874_
*983 _0875_
*984 _0876_
*985 _0877_
*986 _0878_
*987 _0879_
*988 _0880_
*989 _0881_
*990 _0882_
*991 _0883_
*992 _0884_
*993 _0885_
*994 _0886_
*995 _0887_
*996 _0888_
*997 _0889_
*998 _0890_
*999 _0891_
*1000 _0892_
*1001 _0893_
*1002 _0894_
*1003 _0895_
*1004 _0896_
*1005 _0897_
*1006 _0898_
*1007 _0899_
*1008 _0900_
*1009 _0901_
*1010 _0902_
*1011 _0903_
*1012 _0904_
*1013 _0905_
*1014 _0906_
*1015 _0907_
*1016 _0908_
*1017 _0909_
*1018 _0910_
*1019 _0911_
*1020 _0912_
*1021 _0913_
*1022 _0914_
*1023 _0915_
*1024 _0916_
*1025 _0917_
*1026 _0918_
*1027 _0919_
*1028 _0920_
*1029 _0921_
*1030 _0922_
*1031 _0923_
*1032 _0924_
*1033 _0925_
*1034 _0926_
*1035 _0927_
*1036 _0928_
*1037 _0929_
*1038 _0930_
*1039 _0931_
*1040 _0932_
*1041 _0933_
*1042 _0934_
*1043 _0935_
*1044 _0936_
*1045 _0937_
*1046 _0938_
*1047 _0939_
*1048 _0940_
*1049 _0941_
*1050 _0942_
*1051 _0943_
*1052 _0944_
*1053 _0945_
*1054 _0946_
*1055 _0947_
*1056 _0948_
*1057 _0949_
*1058 _0950_
*1059 _0951_
*1060 _0952_
*1061 _0953_
*1062 _0954_
*1063 _0955_
*1064 _0956_
*1065 _0957_
*1066 _0958_
*1067 _0959_
*1068 _0960_
*1069 _0961_
*1070 _0962_
*1071 _0963_
*1072 _0964_
*1073 _0965_
*1074 _0966_
*1075 _0967_
*1076 _0968_
*1077 _0969_
*1078 _0970_
*1079 _0971_
*1080 _0972_
*1081 _0973_
*1082 _0974_
*1083 _0975_
*1084 _0976_
*1085 _0977_
*1086 _0978_
*1087 _0979_
*1088 _0980_
*1089 _0981_
*1090 _0982_
*1091 _0983_
*1092 _0984_
*1093 _0985_
*1094 _0986_
*1095 _0987_
*1096 _0988_
*1097 _0989_
*1098 _0990_
*1099 _0991_
*1100 _0992_
*1101 _0993_
*1102 _0994_
*1103 _0995_
*1104 _0996_
*1105 _0997_
*1106 _0998_
*1107 _0999_
*1108 _1000_
*1109 _1001_
*1110 _1002_
*1111 _1003_
*1112 _1004_
*1113 _1005_
*1114 _1006_
*1115 _1007_
*1116 _1008_
*1117 _1009_
*1118 _1010_
*1119 _1011_
*1120 _1012_
*1121 _1013_
*1122 _1014_
*1123 _1015_
*1124 _1016_
*1125 _1017_
*1126 _1018_
*1127 _1019_
*1128 _1020_
*1129 _1021_
*1130 _1022_
*1131 _1023_
*1132 _1024_
*1133 _1025_
*1134 _1026_
*1135 _1027_
*1136 _1028_
*1137 _1029_
*1138 _1030_
*1139 _1031_
*1140 _1032_
*1141 _1033_
*1142 _1034_
*1143 _1035_
*1144 _1036_
*1145 _1037_
*1146 _1038_
*1147 _1039_
*1148 _1040_
*1149 _1041_
*1150 _1042_
*1151 _1043_
*1152 _1044_
*1153 _1045_
*1154 _1046_
*1155 _1047_
*1156 _1048_
*1157 _1049_
*1158 _1050_
*1159 _1051_
*1160 _1052_
*1161 _1053_
*1162 _1054_
*1163 _1055_
*1164 _1056_
*1165 _1057_
*1166 _1058_
*1167 _1059_
*1168 _1060_
*1169 _1061_
*1170 _1062_
*1171 _1063_
*1172 _1064_
*1173 _1065_
*1174 _1066_
*1175 _1067_
*1176 _1068_
*1177 _1069_
*1178 _1070_
*1179 _1071_
*1180 _1072_
*1181 _1073_
*1182 _1074_
*1183 _1075_
*1184 _1076_
*1185 _1077_
*1186 _1078_
*1187 _1079_
*1188 _1080_
*1189 _1081_
*1190 _1082_
*1191 _1083_
*1192 _1084_
*1193 _1085_
*1194 _1086_
*1195 _1087_
*1196 _1088_
*1197 _1089_
*1198 _1090_
*1199 _1091_
*1200 _1092_
*1201 _1093_
*1202 _1094_
*1203 _1095_
*1204 _1096_
*1205 _1097_
*1206 _1098_
*1207 _1099_
*1208 _1100_
*1209 _1101_
*1210 _1102_
*1211 _1103_
*1212 _1104_
*1213 _1105_
*1214 _1106_
*1215 _1107_
*1216 _1108_
*1217 _1109_
*1218 _1110_
*1219 _1111_
*1220 _1112_
*1221 _1113_
*1222 _1114_
*1223 _1115_
*1224 _1116_
*1225 _1117_
*1226 _1118_
*1227 _1119_
*1228 _1120_
*1229 _1121_
*1230 _1122_
*1231 _1123_
*1232 _1124_
*1233 _1125_
*1234 _1126_
*1235 _1127_
*1236 _1128_
*1237 _1129_
*1238 _1130_
*1239 _1131_
*1240 _1132_
*1241 _1133_
*1242 _1134_
*1243 _1135_
*1244 _1136_
*1245 _1137_
*1246 _1138_
*1247 _1139_
*1248 _1140_
*1249 _1141_
*1250 _1142_
*1251 _1143_
*1252 _1144_
*1253 _1145_
*1254 _1146_
*1255 _1147_
*1256 _1148_
*1257 _1149_
*1258 _1150_
*1259 _1151_
*1260 _1152_
*1261 _1153_
*1262 _1154_
*1263 _1155_
*1264 _1156_
*1265 _1157_
*1266 _1158_
*1267 _1159_
*1268 _1160_
*1269 _1161_
*1270 _1162_
*1271 _1163_
*1272 _1164_
*1273 _1165_
*1274 _1166_
*1275 _1167_
*1276 _1168_
*1277 _1169_
*1278 _1170_
*1279 _1171_
*1280 _1172_
*1281 _1173_
*1282 _1174_
*1283 _1175_
*1284 _1176_
*1285 _1177_
*1286 _1178_
*1287 _1179_
*1288 _1180_
*1289 _1181_
*1290 _1182_
*1291 _1183_
*1292 _1184_
*1293 _1185_
*1294 _1186_
*1295 _1187_
*1296 _1188_
*1297 _1189_
*1298 _1190_
*1299 _1191_
*1300 _1192_
*1301 _1193_
*1302 _1194_
*1303 _1195_
*1304 _1196_
*1305 _1197_
*1306 _1198_
*1307 _1199_
*1308 _1200_
*1309 _1201_
*1310 _1202_
*1311 _1203_
*1312 _1204_
*1313 _1205_
*1314 _1206_
*1315 _1207_
*1316 _1208_
*1317 _1209_
*1318 _1210_
*1319 _1211_
*1320 _1212_
*1321 _1213_
*1322 _1214_
*1323 _1215_
*1324 _1216_
*1325 _1217_
*1326 _1218_
*1327 _1219_
*1328 _1220_
*1329 _1221_
*1330 _1222_
*1331 _1223_
*1332 _1224_
*1333 _1225_
*1334 _1226_
*1335 _1227_
*1336 _1228_
*1337 _1229_
*1338 _1230_
*1339 _1231_
*1340 _1232_
*1341 _1233_
*1342 _1234_
*1343 _1235_
*1344 _1236_
*1345 _1237_
*1346 _1238_
*1347 _1239_
*1348 _1240_
*1349 _1241_
*1350 _1242_
*1351 _1243_
*1352 _1244_
*1353 _1245_
*1354 _1246_
*1355 _1247_
*1356 _1248_
*1357 _1249_
*1358 _1250_
*1359 _1251_
*1360 _1252_
*1361 _1253_
*1362 _1254_
*1363 _1255_
*1364 _1256_
*1365 _1257_
*1366 _1258_
*1367 _1259_
*1368 _1260_
*1369 _1261_
*1370 _1262_
*1371 _1263_
*1372 _1264_
*1373 _1265_
*1374 _1266_
*1375 _1267_
*1376 _1268_
*1377 _1269_
*1378 _1270_
*1379 _1271_
*1380 _1272_
*1381 _1273_
*1382 _1274_
*1383 _1275_
*1384 _1276_
*1385 _1277_
*1386 _1278_
*1387 _1279_
*1388 _1280_
*1389 _1281_
*1390 _1282_
*1391 _1283_
*1392 _1284_
*1393 _1285_
*1394 _1286_
*1395 _1287_
*1396 _1288_
*1397 _1289_
*1398 _1290_
*1399 _1291_
*1400 _1292_
*1401 _1293_
*1402 _1294_
*1403 _1295_
*1404 _1296_
*1405 _1297_
*1406 _1298_
*1407 _1299_
*1408 _1300_
*1409 _1301_
*1410 _1302_
*1411 _1303_
*1412 _1304_
*1413 _1305_
*1414 _1306_
*1415 _1307_
*1416 _1308_
*1417 _1309_
*1418 _1310_
*1419 _1311_
*1420 _1312_
*1421 _1313_
*1422 _1314_
*1423 _1315_
*1424 _1316_
*1425 _1317_
*1426 _1318_
*1427 _1319_
*1428 _1320_
*1429 _1321_
*1430 _1322_
*1431 _1323_
*1432 _1324_
*1433 _1325_
*1434 _1326_
*1435 _1327_
*1436 _1328_
*1437 _1329_
*1438 _1330_
*1439 _1331_
*1440 _1332_
*1441 _1333_
*1442 _1334_
*1443 _1335_
*1444 _1336_
*1445 _1337_
*1446 _1338_
*1447 _1339_
*1448 _1340_
*1449 _1341_
*1450 _1342_
*1451 _1343_
*1452 _1344_
*1453 _1345_
*1454 _1346_
*1455 _1347_
*1456 _1348_
*1457 _1349_
*1458 _1350_
*1459 _1351_
*1460 _1352_
*1461 _1353_
*1462 _1354_
*1463 _1355_
*1464 _1356_
*1465 _1357_
*1466 _1358_
*1467 _1359_
*1468 _1360_
*1469 _1361_
*1470 _1362_
*1471 _1363_
*1472 _1364_
*1473 _1365_
*1474 _1366_
*1475 _1367_
*1476 _1368_
*1477 _1369_
*1478 _1370_
*1479 _1371_
*1480 _1372_
*1481 _1373_
*1482 _1374_
*1483 _1375_
*1484 _1376_
*1485 _1377_
*1486 _1378_
*1487 _1379_
*1488 _1380_
*1489 _1381_
*1490 _1382_
*1491 _1383_
*1492 _1384_
*1493 _1385_
*1494 _1386_
*1495 _1387_
*1496 _1388_
*1497 _1389_
*1498 _1390_
*1499 _1391_
*1500 _1392_
*1501 _1393_
*1502 _1394_
*1503 _1395_
*1504 _1396_
*1505 _1397_
*1506 _1398_
*1507 _1399_
*1508 _1400_
*1509 _1401_
*1510 buffer\.Rx_byte\[0\]
*1511 buffer\.Rx_byte\[1\]
*1512 buffer\.Rx_byte\[2\]
*1513 buffer\.Rx_byte\[3\]
*1514 buffer\.Rx_byte\[4\]
*1515 buffer\.Rx_byte\[5\]
*1516 buffer\.Rx_byte\[6\]
*1517 buffer\.Rx_byte\[7\]
*1518 buffer\.temp_guess\[0\]
*1519 buffer\.temp_guess\[1\]
*1520 buffer\.temp_guess\[2\]
*1521 buffer\.temp_guess\[3\]
*1522 buffer\.temp_guess\[4\]
*1523 buffer\.temp_guess\[5\]
*1524 buffer\.temp_guess\[6\]
*1525 buffer\.temp_guess\[7\]
*1526 clknet_0_clk
*1527 clknet_2_0__leaf_clk
*1528 clknet_2_1__leaf_clk
*1529 clknet_2_2__leaf_clk
*1530 clknet_2_3__leaf_clk
*1531 clknet_leaf_0_clk
*1532 clknet_leaf_10_clk
*1533 clknet_leaf_11_clk
*1534 clknet_leaf_12_clk
*1535 clknet_leaf_13_clk
*1536 clknet_leaf_14_clk
*1537 clknet_leaf_15_clk
*1538 clknet_leaf_16_clk
*1539 clknet_leaf_17_clk
*1540 clknet_leaf_18_clk
*1541 clknet_leaf_19_clk
*1542 clknet_leaf_1_clk
*1543 clknet_leaf_20_clk
*1544 clknet_leaf_21_clk
*1545 clknet_leaf_22_clk
*1546 clknet_leaf_23_clk
*1547 clknet_leaf_24_clk
*1548 clknet_leaf_25_clk
*1549 clknet_leaf_26_clk
*1550 clknet_leaf_27_clk
*1551 clknet_leaf_28_clk
*1552 clknet_leaf_29_clk
*1553 clknet_leaf_2_clk
*1554 clknet_leaf_30_clk
*1555 clknet_leaf_31_clk
*1556 clknet_leaf_32_clk
*1557 clknet_leaf_33_clk
*1558 clknet_leaf_34_clk
*1559 clknet_leaf_35_clk
*1560 clknet_leaf_3_clk
*1561 clknet_leaf_4_clk
*1562 clknet_leaf_5_clk
*1563 clknet_leaf_6_clk
*1564 clknet_leaf_7_clk
*1565 clknet_leaf_8_clk
*1566 clknet_leaf_9_clk
*1567 clock_div\.count\[0\]
*1568 clock_div\.count\[10\]
*1569 clock_div\.count\[11\]
*1570 clock_div\.count\[12\]
*1571 clock_div\.count\[13\]
*1572 clock_div\.count\[14\]
*1573 clock_div\.count\[15\]
*1574 clock_div\.count\[16\]
*1575 clock_div\.count\[17\]
*1576 clock_div\.count\[18\]
*1577 clock_div\.count\[19\]
*1578 clock_div\.count\[1\]
*1579 clock_div\.count\[20\]
*1580 clock_div\.count\[21\]
*1581 clock_div\.count\[22\]
*1582 clock_div\.count\[23\]
*1583 clock_div\.count\[24\]
*1584 clock_div\.count\[25\]
*1585 clock_div\.count\[26\]
*1586 clock_div\.count\[27\]
*1587 clock_div\.count\[28\]
*1588 clock_div\.count\[29\]
*1589 clock_div\.count\[2\]
*1590 clock_div\.count\[3\]
*1591 clock_div\.count\[4\]
*1592 clock_div\.count\[5\]
*1593 clock_div\.count\[6\]
*1594 clock_div\.count\[7\]
*1595 clock_div\.count\[8\]
*1596 clock_div\.count\[9\]
*1597 clock_div\.next_count\[0\]
*1598 clock_div\.next_count\[10\]
*1599 clock_div\.next_count\[11\]
*1600 clock_div\.next_count\[12\]
*1601 clock_div\.next_count\[13\]
*1602 clock_div\.next_count\[14\]
*1603 clock_div\.next_count\[15\]
*1604 clock_div\.next_count\[16\]
*1605 clock_div\.next_count\[17\]
*1606 clock_div\.next_count\[18\]
*1607 clock_div\.next_count\[19\]
*1608 clock_div\.next_count\[1\]
*1609 clock_div\.next_count\[20\]
*1610 clock_div\.next_count\[21\]
*1611 clock_div\.next_count\[22\]
*1612 clock_div\.next_count\[23\]
*1613 clock_div\.next_count\[24\]
*1614 clock_div\.next_count\[25\]
*1615 clock_div\.next_count\[26\]
*1616 clock_div\.next_count\[27\]
*1617 clock_div\.next_count\[28\]
*1618 clock_div\.next_count\[29\]
*1619 clock_div\.next_count\[2\]
*1620 clock_div\.next_count\[3\]
*1621 clock_div\.next_count\[4\]
*1622 clock_div\.next_count\[5\]
*1623 clock_div\.next_count\[6\]
*1624 clock_div\.next_count\[7\]
*1625 clock_div\.next_count\[8\]
*1626 clock_div\.next_count\[9\]
*1627 dispFSM\.guesses\[0\]
*1628 dispFSM\.guesses\[10\]
*1629 dispFSM\.guesses\[11\]
*1630 dispFSM\.guesses\[12\]
*1631 dispFSM\.guesses\[13\]
*1632 dispFSM\.guesses\[14\]
*1633 dispFSM\.guesses\[15\]
*1634 dispFSM\.guesses\[16\]
*1635 dispFSM\.guesses\[17\]
*1636 dispFSM\.guesses\[18\]
*1637 dispFSM\.guesses\[19\]
*1638 dispFSM\.guesses\[1\]
*1639 dispFSM\.guesses\[20\]
*1640 dispFSM\.guesses\[21\]
*1641 dispFSM\.guesses\[22\]
*1642 dispFSM\.guesses\[23\]
*1643 dispFSM\.guesses\[24\]
*1644 dispFSM\.guesses\[25\]
*1645 dispFSM\.guesses\[26\]
*1646 dispFSM\.guesses\[27\]
*1647 dispFSM\.guesses\[28\]
*1648 dispFSM\.guesses\[29\]
*1649 dispFSM\.guesses\[2\]
*1650 dispFSM\.guesses\[30\]
*1651 dispFSM\.guesses\[31\]
*1652 dispFSM\.guesses\[32\]
*1653 dispFSM\.guesses\[33\]
*1654 dispFSM\.guesses\[34\]
*1655 dispFSM\.guesses\[35\]
*1656 dispFSM\.guesses\[36\]
*1657 dispFSM\.guesses\[37\]
*1658 dispFSM\.guesses\[38\]
*1659 dispFSM\.guesses\[39\]
*1660 dispFSM\.guesses\[3\]
*1661 dispFSM\.guesses\[40\]
*1662 dispFSM\.guesses\[41\]
*1663 dispFSM\.guesses\[42\]
*1664 dispFSM\.guesses\[43\]
*1665 dispFSM\.guesses\[44\]
*1666 dispFSM\.guesses\[45\]
*1667 dispFSM\.guesses\[46\]
*1668 dispFSM\.guesses\[47\]
*1669 dispFSM\.guesses\[48\]
*1670 dispFSM\.guesses\[49\]
*1671 dispFSM\.guesses\[4\]
*1672 dispFSM\.guesses\[50\]
*1673 dispFSM\.guesses\[51\]
*1674 dispFSM\.guesses\[52\]
*1675 dispFSM\.guesses\[53\]
*1676 dispFSM\.guesses\[54\]
*1677 dispFSM\.guesses\[55\]
*1678 dispFSM\.guesses\[56\]
*1679 dispFSM\.guesses\[57\]
*1680 dispFSM\.guesses\[58\]
*1681 dispFSM\.guesses\[59\]
*1682 dispFSM\.guesses\[5\]
*1683 dispFSM\.guesses\[60\]
*1684 dispFSM\.guesses\[61\]
*1685 dispFSM\.guesses\[62\]
*1686 dispFSM\.guesses\[63\]
*1687 dispFSM\.guesses\[64\]
*1688 dispFSM\.guesses\[65\]
*1689 dispFSM\.guesses\[66\]
*1690 dispFSM\.guesses\[67\]
*1691 dispFSM\.guesses\[68\]
*1692 dispFSM\.guesses\[69\]
*1693 dispFSM\.guesses\[6\]
*1694 dispFSM\.guesses\[70\]
*1695 dispFSM\.guesses\[71\]
*1696 dispFSM\.guesses\[72\]
*1697 dispFSM\.guesses\[73\]
*1698 dispFSM\.guesses\[74\]
*1699 dispFSM\.guesses\[75\]
*1700 dispFSM\.guesses\[76\]
*1701 dispFSM\.guesses\[77\]
*1702 dispFSM\.guesses\[78\]
*1703 dispFSM\.guesses\[79\]
*1704 dispFSM\.guesses\[7\]
*1705 dispFSM\.guesses\[8\]
*1706 dispFSM\.guesses\[9\]
*1707 dispFSM\.msg\[0\]
*1708 dispFSM\.msg\[1\]
*1709 dispFSM\.msg\[2\]
*1710 dispFSM\.msg\[3\]
*1711 dispFSM\.msg\[4\]
*1712 dispFSM\.msg\[5\]
*1713 dispFSM\.msg\[6\]
*1714 dispFSM\.msg\[7\]
*1715 gamelogic\.correct\[0\]
*1716 gamelogic\.correct\[1\]
*1717 gamelogic\.correct\[2\]
*1718 gamelogic\.green
*1719 gamelogic\.incorrect\[0\]
*1720 gamelogic\.incorrect\[1\]
*1721 gamelogic\.incorrect\[2\]
*1722 gamelogic\.indexCorrect\[0\]
*1723 gamelogic\.indexCorrect\[1\]
*1724 gamelogic\.indexCorrect\[2\]
*1725 gamelogic\.indexCorrect\[3\]
*1726 gamelogic\.indexCorrect\[4\]
*1727 gamelogic\.letter\[0\]
*1728 gamelogic\.letter\[1\]
*1729 gamelogic\.letter\[2\]
*1730 gamelogic\.letter\[3\]
*1731 gamelogic\.letter\[4\]
*1732 gamelogic\.letter\[5\]
*1733 gamelogic\.letter\[6\]
*1734 gamelogic\.letter\[7\]
*1735 gamelogic\.nextState\[0\]
*1736 gamelogic\.nextState\[1\]
*1737 gamelogic\.nextState\[2\]
*1738 gamelogic\.nextState\[3\]
*1739 gamelogic\.red
*1740 gamelogic\.rights\[0\]
*1741 gamelogic\.rights\[1\]
*1742 gamelogic\.rights\[2\]
*1743 gamelogic\.setWord\[0\]
*1744 gamelogic\.setWord\[10\]
*1745 gamelogic\.setWord\[11\]
*1746 gamelogic\.setWord\[12\]
*1747 gamelogic\.setWord\[13\]
*1748 gamelogic\.setWord\[14\]
*1749 gamelogic\.setWord\[15\]
*1750 gamelogic\.setWord\[16\]
*1751 gamelogic\.setWord\[17\]
*1752 gamelogic\.setWord\[18\]
*1753 gamelogic\.setWord\[19\]
*1754 gamelogic\.setWord\[1\]
*1755 gamelogic\.setWord\[20\]
*1756 gamelogic\.setWord\[21\]
*1757 gamelogic\.setWord\[22\]
*1758 gamelogic\.setWord\[23\]
*1759 gamelogic\.setWord\[24\]
*1760 gamelogic\.setWord\[25\]
*1761 gamelogic\.setWord\[26\]
*1762 gamelogic\.setWord\[27\]
*1763 gamelogic\.setWord\[28\]
*1764 gamelogic\.setWord\[29\]
*1765 gamelogic\.setWord\[2\]
*1766 gamelogic\.setWord\[30\]
*1767 gamelogic\.setWord\[31\]
*1768 gamelogic\.setWord\[32\]
*1769 gamelogic\.setWord\[33\]
*1770 gamelogic\.setWord\[34\]
*1771 gamelogic\.setWord\[35\]
*1772 gamelogic\.setWord\[36\]
*1773 gamelogic\.setWord\[37\]
*1774 gamelogic\.setWord\[38\]
*1775 gamelogic\.setWord\[39\]
*1776 gamelogic\.setWord\[3\]
*1777 gamelogic\.setWord\[4\]
*1778 gamelogic\.setWord\[5\]
*1779 gamelogic\.setWord\[6\]
*1780 gamelogic\.setWord\[7\]
*1781 gamelogic\.setWord\[8\]
*1782 gamelogic\.setWord\[9\]
*1783 gamelogic\.state\[0\]
*1784 gamelogic\.state\[1\]
*1785 gamelogic\.state\[2\]
*1786 gamelogic\.state\[3\]
*1787 host_message_reg\.Cstate
*1788 host_message_reg\.next_state
*1789 host_message_reg\.setLetter\[0\]
*1790 host_message_reg\.setLetter\[1\]
*1791 host_message_reg\.setLetter\[2\]
*1792 host_message_reg\.setLetter\[3\]
*1793 host_message_reg\.setLetter\[4\]
*1794 host_message_reg\.setLetter\[5\]
*1795 host_message_reg\.setLetter\[6\]
*1796 host_message_reg\.setLetter\[7\]
*1797 hostdisp\.Cstate
*1798 hostdisp\.bottom\[101\]
*1799 hostdisp\.bottom\[40\]
*1800 hostdisp\.bottom\[41\]
*1801 hostdisp\.bottom\[42\]
*1802 hostdisp\.bottom\[43\]
*1803 hostdisp\.bottom\[44\]
*1804 hostdisp\.bottom\[45\]
*1805 hostdisp\.bottom\[46\]
*1806 hostdisp\.bottom\[47\]
*1807 hostdisp\.bottom\[48\]
*1808 hostdisp\.bottom\[49\]
*1809 hostdisp\.bottom\[50\]
*1810 hostdisp\.bottom\[51\]
*1811 hostdisp\.bottom\[52\]
*1812 hostdisp\.bottom\[53\]
*1813 hostdisp\.bottom\[54\]
*1814 hostdisp\.bottom\[55\]
*1815 hostdisp\.bottom\[56\]
*1816 hostdisp\.bottom\[57\]
*1817 hostdisp\.bottom\[58\]
*1818 hostdisp\.bottom\[59\]
*1819 hostdisp\.bottom\[60\]
*1820 hostdisp\.bottom\[61\]
*1821 hostdisp\.bottom\[62\]
*1822 hostdisp\.bottom\[63\]
*1823 hostdisp\.bottom\[64\]
*1824 hostdisp\.bottom\[65\]
*1825 hostdisp\.bottom\[66\]
*1826 hostdisp\.bottom\[67\]
*1827 hostdisp\.bottom\[68\]
*1828 hostdisp\.bottom\[69\]
*1829 hostdisp\.bottom\[70\]
*1830 hostdisp\.bottom\[71\]
*1831 hostdisp\.bottom\[72\]
*1832 hostdisp\.bottom\[73\]
*1833 hostdisp\.bottom\[74\]
*1834 hostdisp\.bottom\[75\]
*1835 hostdisp\.bottom\[76\]
*1836 hostdisp\.bottom\[77\]
*1837 hostdisp\.bottom\[78\]
*1838 hostdisp\.bottom\[79\]
*1839 hostdisp\.bottom\[80\]
*1840 hostdisp\.bottom\[81\]
*1841 hostdisp\.bottom\[82\]
*1842 hostdisp\.bottom\[83\]
*1843 hostdisp\.bottom\[84\]
*1844 hostdisp\.bottom\[85\]
*1845 hostdisp\.bottom\[86\]
*1846 hostdisp\.bottom\[87\]
*1847 hostdisp\.curr_guesses\[0\]
*1848 hostdisp\.curr_guesses\[10\]
*1849 hostdisp\.curr_guesses\[11\]
*1850 hostdisp\.curr_guesses\[12\]
*1851 hostdisp\.curr_guesses\[13\]
*1852 hostdisp\.curr_guesses\[14\]
*1853 hostdisp\.curr_guesses\[15\]
*1854 hostdisp\.curr_guesses\[16\]
*1855 hostdisp\.curr_guesses\[17\]
*1856 hostdisp\.curr_guesses\[18\]
*1857 hostdisp\.curr_guesses\[19\]
*1858 hostdisp\.curr_guesses\[1\]
*1859 hostdisp\.curr_guesses\[20\]
*1860 hostdisp\.curr_guesses\[21\]
*1861 hostdisp\.curr_guesses\[22\]
*1862 hostdisp\.curr_guesses\[23\]
*1863 hostdisp\.curr_guesses\[24\]
*1864 hostdisp\.curr_guesses\[25\]
*1865 hostdisp\.curr_guesses\[26\]
*1866 hostdisp\.curr_guesses\[27\]
*1867 hostdisp\.curr_guesses\[28\]
*1868 hostdisp\.curr_guesses\[29\]