*SPEF "ieee 1481-1999"
*DESIGN "team_11_Wrapper"
*DATE "00:17:32 Saturday July 13, 2024"
*VENDOR "The OpenROAD Project"
*PROGRAM "OpenROAD"
*VERSION "d423155d69de7f683a23f6916ead418a615ad4ad"
*DESIGN_FLOW "NAME_SCOPE LOCAL" "PIN_CAP NONE"
*DIVIDER /
*DELIMITER :
*BUS_DELIMITER []
*T_UNIT 1 NS
*C_UNIT 1 PF
*R_UNIT 1 OHM
*L_UNIT 1 HENRY

*NAME_MAP
*1 gpio_in[0]
*2 gpio_in[10]
*3 gpio_in[11]
*4 gpio_in[12]
*5 gpio_in[13]
*6 gpio_in[14]
*7 gpio_in[15]
*8 gpio_in[16]
*9 gpio_in[17]
*10 gpio_in[18]
*11 gpio_in[19]
*12 gpio_in[1]
*13 gpio_in[20]
*14 gpio_in[21]
*15 gpio_in[22]
*16 gpio_in[23]
*17 gpio_in[24]
*18 gpio_in[25]
*19 gpio_in[26]
*20 gpio_in[27]
*21 gpio_in[28]
*22 gpio_in[29]
*23 gpio_in[2]
*24 gpio_in[30]
*25 gpio_in[31]
*26 gpio_in[32]
*27 gpio_in[33]
*28 gpio_in[34]
*29 gpio_in[35]
*30 gpio_in[36]
*31 gpio_in[37]
*32 gpio_in[3]
*33 gpio_in[4]
*34 gpio_in[5]
*35 gpio_in[6]
*36 gpio_in[7]
*37 gpio_in[8]
*38 gpio_in[9]
*39 gpio_oeb[0]
*40 gpio_oeb[10]
*41 gpio_oeb[11]
*42 gpio_oeb[12]
*43 gpio_oeb[13]
*44 gpio_oeb[14]
*45 gpio_oeb[15]
*46 gpio_oeb[16]
*47 gpio_oeb[17]
*48 gpio_oeb[18]
*49 gpio_oeb[19]
*50 gpio_oeb[1]
*51 gpio_oeb[20]
*52 gpio_oeb[21]
*53 gpio_oeb[22]
*54 gpio_oeb[23]
*55 gpio_oeb[24]
*56 gpio_oeb[25]
*57 gpio_oeb[26]
*58 gpio_oeb[27]
*59 gpio_oeb[28]
*60 gpio_oeb[29]
*61 gpio_oeb[2]
*62 gpio_oeb[30]
*63 gpio_oeb[31]
*64 gpio_oeb[32]
*65 gpio_oeb[33]
*66 gpio_oeb[34]
*67 gpio_oeb[35]
*68 gpio_oeb[36]
*69 gpio_oeb[37]
*70 gpio_oeb[3]
*71 gpio_oeb[4]
*72 gpio_oeb[5]
*73 gpio_oeb[6]
*74 gpio_oeb[7]
*75 gpio_oeb[8]
*76 gpio_oeb[9]
*77 gpio_out[0]
*78 gpio_out[10]
*79 gpio_out[11]
*80 gpio_out[12]
*81 gpio_out[13]
*82 gpio_out[14]
*83 gpio_out[15]
*84 gpio_out[16]
*85 gpio_out[17]
*86 gpio_out[18]
*87 gpio_out[19]
*88 gpio_out[1]
*89 gpio_out[20]
*90 gpio_out[21]
*91 gpio_out[22]
*92 gpio_out[23]
*93 gpio_out[24]
*94 gpio_out[25]
*95 gpio_out[26]
*96 gpio_out[27]
*97 gpio_out[28]
*98 gpio_out[29]
*99 gpio_out[2]
*100 gpio_out[30]
*101 gpio_out[31]
*102 gpio_out[32]
*103 gpio_out[33]
*104 gpio_out[34]
*105 gpio_out[35]
*106 gpio_out[36]
*107 gpio_out[37]
*108 gpio_out[3]
*109 gpio_out[4]
*110 gpio_out[5]
*111 gpio_out[6]
*112 gpio_out[7]
*113 gpio_out[8]
*114 gpio_out[9]
*115 irq[0]
*116 irq[1]
*117 irq[2]
*120 wb_clk_i
*121 wb_rst_i
*122 wbs_ack_o
*123 wbs_adr_i[0]
*124 wbs_adr_i[10]
*125 wbs_adr_i[11]
*126 wbs_adr_i[12]
*127 wbs_adr_i[13]
*128 wbs_adr_i[14]
*129 wbs_adr_i[15]
*130 wbs_adr_i[16]
*131 wbs_adr_i[17]
*132 wbs_adr_i[18]
*133 wbs_adr_i[19]
*134 wbs_adr_i[1]
*135 wbs_adr_i[20]
*136 wbs_adr_i[21]
*137 wbs_adr_i[22]
*138 wbs_adr_i[23]
*139 wbs_adr_i[24]
*140 wbs_adr_i[25]
*141 wbs_adr_i[26]
*142 wbs_adr_i[27]
*143 wbs_adr_i[28]
*144 wbs_adr_i[29]
*145 wbs_adr_i[2]
*146 wbs_adr_i[30]
*147 wbs_adr_i[31]
*148 wbs_adr_i[3]
*149 wbs_adr_i[4]
*150 wbs_adr_i[5]
*151 wbs_adr_i[6]
*152 wbs_adr_i[7]
*153 wbs_adr_i[8]
*154 wbs_adr_i[9]
*155 wbs_cyc_i
*156 wbs_dat_i[0]
*157 wbs_dat_i[10]
*158 wbs_dat_i[11]
*159 wbs_dat_i[12]
*160 wbs_dat_i[13]
*161 wbs_dat_i[14]
*162 wbs_dat_i[15]
*163 wbs_dat_i[16]
*164 wbs_dat_i[17]
*165 wbs_dat_i[18]
*166 wbs_dat_i[19]
*167 wbs_dat_i[1]
*168 wbs_dat_i[20]
*169 wbs_dat_i[21]
*170 wbs_dat_i[22]
*171 wbs_dat_i[23]
*172 wbs_dat_i[24]
*173 wbs_dat_i[25]
*174 wbs_dat_i[26]
*175 wbs_dat_i[27]
*176 wbs_dat_i[28]
*177 wbs_dat_i[29]
*178 wbs_dat_i[2]
*179 wbs_dat_i[30]
*180 wbs_dat_i[31]
*181 wbs_dat_i[3]
*182 wbs_dat_i[4]
*183 wbs_dat_i[5]
*184 wbs_dat_i[6]
*185 wbs_dat_i[7]
*186 wbs_dat_i[8]
*187 wbs_dat_i[9]
*188 wbs_dat_o[0]
*189 wbs_dat_o[10]
*190 wbs_dat_o[11]
*191 wbs_dat_o[12]
*192 wbs_dat_o[13]
*193 wbs_dat_o[14]
*194 wbs_dat_o[15]
*195 wbs_dat_o[16]
*196 wbs_dat_o[17]
*197 wbs_dat_o[18]
*198 wbs_dat_o[19]
*199 wbs_dat_o[1]
*200 wbs_dat_o[20]
*201 wbs_dat_o[21]
*202 wbs_dat_o[22]
*203 wbs_dat_o[23]
*204 wbs_dat_o[24]
*205 wbs_dat_o[25]
*206 wbs_dat_o[26]
*207 wbs_dat_o[27]
*208 wbs_dat_o[28]
*209 wbs_dat_o[29]
*210 wbs_dat_o[2]
*211 wbs_dat_o[30]
*212 wbs_dat_o[31]
*213 wbs_dat_o[3]
*214 wbs_dat_o[4]
*215 wbs_dat_o[5]
*216 wbs_dat_o[6]
*217 wbs_dat_o[7]
*218 wbs_dat_o[8]
*219 wbs_dat_o[9]
*220 wbs_sel_i[0]
*221 wbs_sel_i[1]
*222 wbs_sel_i[2]
*223 wbs_sel_i[3]
*224 wbs_stb_i
*225 wbs_we_i
*226 _0000_
*227 _0001_
*228 _0002_
*229 _0003_
*230 _0004_
*231 _0005_
*232 _0006_
*233 _0007_
*234 _0008_
*235 _0009_
*236 _0010_
*237 _0011_
*238 _0012_
*239 _0013_
*240 _0014_
*241 _0015_
*242 _0016_
*243 _0017_
*244 _0018_
*245 _0019_
*246 _0020_
*247 _0021_
*248 _0022_
*249 _0023_
*250 _0024_
*251 _0025_
*252 _0026_
*253 _0027_
*254 _0028_
*255 _0029_
*256 _0030_
*257 _0031_
*258 _0032_
*259 _0033_
*260 _0034_
*261 _0035_
*262 _0036_
*263 _0037_
*264 _0038_
*265 _0039_
*266 _0040_
*267 _0041_
*268 _0042_
*269 _0043_
*270 _0044_
*271 _0045_
*272 _0046_
*273 _0047_
*274 _0048_
*275 _0049_
*276 _0050_
*277 _0051_
*278 _0052_
*279 _0053_
*280 _0054_
*281 _0055_
*282 _0056_
*283 _0057_
*284 _0058_
*285 _0059_
*286 _0060_
*287 _0061_
*288 _0062_
*289 _0063_
*290 _0064_
*291 _0065_
*292 _0066_
*293 _0067_
*294 _0068_
*295 _0069_
*296 _0070_
*297 _0071_
*298 _0072_
*299 _0073_
*300 _0074_
*301 _0075_
*302 _0076_
*303 _0077_
*304 _0078_
*305 _0079_
*306 _0080_
*307 _0081_
*308 _0082_
*309 _0083_
*310 _0084_
*311 _0085_
*312 _0086_
*313 _0087_
*314 _0088_
*315 _0089_
*316 _0090_
*317 _0091_
*318 _0092_
*319 _0093_
*320 _0094_
*321 _0095_
*322 _0096_
*323 _0097_
*324 _0098_
*325 _0099_
*326 _0100_
*327 _0101_
*328 _0102_
*329 _0103_
*330 _0104_
*331 _0105_
*332 _0106_
*333 _0107_
*334 _0108_
*335 _0109_
*336 _0110_
*337 _0111_
*338 _0112_
*339 _0113_
*340 _0114_
*341 _0115_
*342 _0116_
*343 _0117_
*344 _0118_
*345 _0119_
*346 _0120_
*347 _0121_
*348 _0122_
*349 _0123_
*350 _0124_
*351 _0125_
*352 _0126_
*353 _0127_
*354 _0128_
*355 _0129_
*356 _0130_
*357 _0131_
*358 _0132_
*359 _0133_
*360 _0134_
*361 _0135_
*362 _0136_
*363 _0137_
*364 _0138_
*365 _0139_
*366 _0140_
*367 _0141_
*368 _0142_
*369 _0143_
*370 _0144_
*371 _0145_
*372 _0146_
*373 _0147_
*374 _0148_
*375 _0149_
*376 _0150_
*377 _0151_
*378 _0152_
*379 _0153_
*380 _0154_
*381 _0155_
*382 _0156_
*383 _0157_
*384 _0158_
*385 _0159_
*386 _0160_
*387 _0161_
*388 _0162_
*389 _0163_
*390 _0164_
*391 _0165_
*392 _0166_
*393 _0167_
*394 _0168_
*395 _0169_
*396 _0170_
*397 _0171_
*398 _0172_
*399 _0173_
*400 _0174_
*401 _0175_
*402 _0176_
*403 _0177_
*404 _0178_
*405 _0179_
*406 _0180_
*407 _0181_
*408 _0182_
*409 _0183_
*410 _0184_
*411 _0185_
*412 _0186_
*413 _0187_
*414 _0188_
*415 _0189_
*416 _0190_
*417 _0191_
*418 _0192_
*419 _0193_
*420 _0194_
*421 _0195_
*422 _0196_
*423 _0197_
*424 _0198_
*425 _0199_
*426 _0200_
*427 _0201_
*428 _0202_
*429 _0203_
*430 _0204_
*431 _0205_
*432 _0206_
*433 _0207_
*434 _0208_
*435 _0209_
*436 _0210_
*437 _0211_
*438 _0212_
*439 _0213_
*440 _0214_
*441 _0215_
*442 _0216_
*443 _0217_
*444 _0218_
*445 _0219_
*446 _0220_
*447 _0221_
*448 _0222_
*449 _0223_
*450 _0224_
*451 _0225_
*452 _0226_
*453 _0227_
*454 _0228_
*455 _0229_
*456 _0230_
*457 _0231_
*458 _0232_
*459 _0233_
*460 _0234_
*461 _0235_
*462 _0236_
*463 _0237_
*464 _0238_
*465 _0239_
*466 _0240_
*467 _0241_
*468 _0242_
*469 _0243_
*470 _0244_
*471 _0245_
*472 _0246_
*473 _0247_
*474 _0248_
*475 _0249_
*476 _0250_
*477 _0251_
*478 _0252_
*479 _0253_
*480 _0254_
*481 _0255_
*482 _0256_
*483 _0257_
*484 _0258_
*485 _0259_
*486 _0260_
*487 _0261_
*488 _0262_
*489 _0263_
*490 _0264_
*491 _0265_
*492 _0266_
*493 _0267_
*494 _0268_
*495 _0269_
*496 _0270_
*497 _0271_
*498 _0272_
*499 _0273_
*500 _0274_
*501 _0275_
*502 _0276_
*503 _0277_
*504 _0278_
*505 _0279_
*506 _0280_
*507 _0281_
*508 _0282_
*509 _0283_
*510 _0284_
*511 _0285_
*512 _0286_
*513 _0287_
*514 _0288_
*515 _0289_
*516 _0290_
*517 _0291_
*518 _0292_
*519 _0293_
*520 _0294_
*521 _0295_
*522 _0296_
*523 _0297_
*524 _0298_
*525 _0299_
*526 _0300_
*527 _0301_
*528 _0302_
*529 _0303_
*530 _0304_
*531 _0305_
*532 _0306_
*533 _0307_
*534 _0308_
*535 _0309_
*536 _0310_
*537 _0311_
*538 _0312_
*539 _0313_
*540 _0314_
*541 _0315_
*542 _0316_
*543 _0317_
*544 _0318_
*545 _0319_
*546 _0320_
*547 _0321_
*548 _0322_
*549 _0323_
*550 _0324_
*551 _0325_
*552 _0326_
*553 _0327_
*554 _0328_
*555 _0329_
*556 _0330_
*557 _0331_
*558 _0332_
*559 _0333_
*560 _0334_
*561 _0335_
*562 _0336_
*563 _0337_
*564 _0338_
*565 _0339_
*566 _0340_
*567 _0341_
*568 _0342_
*569 _0343_
*570 _0344_
*571 _0345_
*572 _0346_
*573 _0347_
*574 _0348_
*575 _0349_
*576 _0350_
*577 _0351_
*578 _0352_
*579 _0353_
*580 _0354_
*581 _0355_
*582 _0356_
*583 _0357_
*584 _0358_
*585 _0359_
*586 _0360_
*587 _0361_
*588 _0362_
*589 _0363_
*590 _0364_
*591 _0365_
*592 _0366_
*593 _0367_
*594 _0368_
*595 _0369_
*596 _0370_
*597 _0371_
*598 _0372_
*599 _0373_
*600 _0374_
*601 _0375_
*602 _0376_
*603 _0377_
*604 _0378_
*605 _0379_
*606 _0380_
*607 _0381_
*608 _0382_
*609 _0383_
*610 _0384_
*611 _0385_
*612 _0386_
*613 _0387_
*614 _0388_
*615 _0389_
*616 _0390_
*617 _0391_
*618 _0392_
*619 _0393_
*620 _0394_
*621 _0395_
*622 _0396_
*623 _0397_
*624 _0398_
*625 _0399_
*626 _0400_
*627 _0401_
*628 _0402_
*629 _0403_
*630 _0404_
*631 _0405_
*632 _0406_
*633 _0407_
*634 _0408_
*635 _0409_
*636 _0410_
*637 _0411_
*638 _0412_
*639 _0413_
*640 _0414_
*641 _0415_
*642 _0416_
*643 _0417_
*644 _0418_
*645 _0419_
*646 _0420_
*647 _0421_
*648 _0422_
*649 _0423_
*650 _0424_
*651 _0425_
*652 _0426_
*653 _0427_
*654 _0428_
*655 _0429_
*656 _0430_
*657 _0431_
*658 _0432_
*659 _0433_
*660 _0434_
*661 _0435_
*662 _0436_
*663 _0437_
*664 _0438_
*665 _0439_
*666 _0440_
*667 _0441_
*668 _0442_
*669 _0443_
*670 _0444_
*671 _0445_
*672 _0446_
*673 _0447_
*674 _0448_
*675 _0449_
*676 _0450_
*677 _0451_
*678 _0452_
*679 _0453_
*680 _0454_
*681 _0455_
*682 _0456_
*683 _0457_
*684 _0458_
*685 _0459_
*686 _0460_
*687 _0461_
*688 _0462_
*689 _0463_
*690 _0464_
*691 _0465_
*692 _0466_
*693 _0467_
*694 _0468_
*695 _0469_
*696 _0470_
*697 _0471_
*698 _0472_
*699 _0473_
*700 _0474_
*701 _0475_
*702 _0476_
*703 _0477_
*704 _0478_
*705 _0479_
*706 _0480_
*707 _0481_
*708 _0482_
*709 _0483_
*710 _0484_
*711 _0485_
*712 _0486_
*713 _0487_
*714 _0488_
*715 _0489_
*716 _0490_
*717 _0491_
*718 _0492_
*719 _0493_
*720 _0494_
*721 _0495_
*722 _0496_
*723 _0497_
*724 _0498_
*725 _0499_
*726 _0500_
*727 _0501_
*728 _0502_
*729 _0503_
*730 _0504_
*731 _0505_
*732 _0506_
*733 _0507_
*734 _0508_
*735 _0509_
*736 _0510_
*737 _0511_
*738 _0512_
*739 _0513_
*740 _0514_
*741 _0515_
*742 _0516_
*743 _0517_
*744 _0518_
*745 _0519_
*746 _0520_
*747 _0521_
*748 _0522_
*749 _0523_
*750 _0524_
*751 _0525_
*752 _0526_
*753 _0527_
*754 _0528_
*755 _0529_
*756 _0530_
*757 _0531_
*758 _0532_
*759 _0533_
*760 _0534_
*761 _0535_
*762 _0536_
*763 _0537_
*764 _0538_
*765 _0539_
*766 _0540_
*767 _0541_
*768 _0542_
*769 _0543_
*770 _0544_
*771 _0545_
*772 _0546_
*773 _0547_
*774 _0548_
*775 _0549_
*776 _0550_
*777 _0551_
*778 _0552_
*779 _0553_
*780 _0554_
*781 _0555_
*782 _0556_
*783 _0557_
*784 _0558_
*785 _0559_
*786 _0560_
*787 _0561_
*788 _0562_
*789 _0563_
*790 _0564_
*791 _0565_
*792 _0566_
*793 _0567_
*794 _0568_
*795 _0569_
*796 _0570_
*797 _0571_
*798 _0572_
*799 _0573_
*800 _0574_
*801 _0575_
*802 _0576_
*803 _0577_
*804 _0578_
*805 _0579_
*806 _0580_
*807 _0581_
*808 _0582_
*809 _0583_
*810 _0584_
*811 _0585_
*812 _0586_
*813 _0587_
*814 _0588_
*815 _0589_
*816 _0590_
*817 _0591_
*818 _0592_
*819 _0593_
*820 _0594_
*821 _0595_
*822 _0596_
*823 _0597_
*824 _0598_
*825 _0599_
*826 _0600_
*827 _0601_
*828 _0602_
*829 _0603_
*830 _0604_
*831 _0605_
*832 _0606_
*833 _0607_
*834 _0608_
*835 _0609_
*836 _0610_
*837 _0611_
*838 _0612_
*839 _0613_
*840 _0614_
*841 _0615_
*842 _0616_
*843 _0617_
*844 _0618_
*845 _0619_
*846 _0620_
*847 _0621_
*848 _0622_
*849 _0623_
*850 _0624_
*851 _0625_
*852 _0626_
*853 _0627_
*854 _0628_
*855 _0629_
*856 _0630_
*857 _0631_
*858 _0632_
*859 _0633_
*860 _0634_
*861 _0635_
*862 _0636_
*863 _0637_
*864 _0638_
*865 _0639_
*866 _0640_
*867 _0641_
*868 _0642_
*869 _0643_
*870 _0644_
*871 _0645_
*872 _0646_
*873 _0647_
*874 _0648_
*875 _0649_
*876 _0650_
*877 _0651_
*878 _0652_
*879 _0653_
*880 _0654_
*881 _0655_
*882 _0656_
*883 _0657_
*884 _0658_
*885 _0659_
*886 _0660_
*887 _0661_
*888 _0662_
*889 _0663_
*890 _0664_
*891 _0665_
*892 _0666_
*893 _0667_
*894 _0668_
*895 _0669_
*896 _0670_
*897 _0671_
*898 _0672_
*899 _0673_
*900 _0674_
*901 _0675_
*902 _0676_
*903 _0677_
*904 _0678_
*905 _0679_
*906 _0680_
*907 _0681_
*908 _0682_
*909 _0683_
*910 _0684_
*911 _0685_
*912 _0686_
*913 _0687_
*914 _0688_
*915 _0689_
*916 _0690_
*917 _0691_
*918 _0692_
*919 _0693_
*920 _0694_
*921 _0695_
*922 _0696_
*923 _0697_
*924 _0698_
*925 _0699_
*926 _0700_
*927 _0701_
*928 _0702_
*929 _0703_
*930 _0704_
*931 _0705_
*932 _0706_
*933 _0707_
*934 _0708_
*935 _0709_
*936 _0710_
*937 _0711_
*938 _0712_
*939 _0713_
*940 _0714_
*941 _0715_
*942 _0716_
*943 _0717_
*944 _0718_
*945 _0719_
*946 _0720_
*947 _0721_
*948 _0722_
*949 _0723_
*950 _0724_
*951 _0725_
*952 _0726_
*953 _0727_
*954 _0728_
*955 _0729_
*956 _0730_
*957 clknet_0_wb_clk_i
*958 clknet_1_0__leaf_wb_clk_i
*959 clknet_1_1__leaf_wb_clk_i
*960 clknet_leaf_0_wb_clk_i
*961 clknet_leaf_10_wb_clk_i
*962 clknet_leaf_11_wb_clk_i
*963 clknet_leaf_12_wb_clk_i
*964 clknet_leaf_13_wb_clk_i
*965 clknet_leaf_14_wb_clk_i
*966 clknet_leaf_15_wb_clk_i
*967 clknet_leaf_16_wb_clk_i
*968 clknet_leaf_17_wb_clk_i
*969 clknet_leaf_18_wb_clk_i
*970 clknet_leaf_19_wb_clk_i
*971 clknet_leaf_1_wb_clk_i
*972 clknet_leaf_20_wb_clk_i
*973 clknet_leaf_21_wb_clk_i
*974 clknet_leaf_22_wb_clk_i
*975 clknet_leaf_23_wb_clk_i
*976 clknet_leaf_24_wb_clk_i
*977 clknet_leaf_25_wb_clk_i
*978 clknet_leaf_26_wb_clk_i
*979 clknet_leaf_27_wb_clk_i
*980 clknet_leaf_2_wb_clk_i
*981 clknet_leaf_3_wb_clk_i
*982 clknet_leaf_4_wb_clk_i
*983 clknet_leaf_5_wb_clk_i
*984 clknet_leaf_6_wb_clk_i
*985 clknet_leaf_7_wb_clk_i
*986 clknet_leaf_8_wb_clk_i
*987 clknet_leaf_9_wb_clk_i
*988 net1
*989 net10
*990 net100
*991 net101
*992 net102
*993 net103
*994 net104
*995 net105
*996 net106
*997 net107
*998 net108
*999 net109
*1000 net11
*1001 net110
*1002 net111
*1003 net112
*1004 net113
*1005 net114
*1006 net115
*1007 net116
*1008 net117
*1009 net118
*1010 net119
*1011 net12
*1012 net120
*1013 net121
*1014 net122
*1015 net123
*1016 net124
*1017 net125
*1018 net126
*1019 net127
*1020 net128
*1021 net129
*1022 net13
*1023 net130
*1024 net131
*1025 net132
*1026 net133
*1027 net134
*1028 net135
*1029 net136
*1030 net137
*1031 net138
*1032 net139
*1033 net14
*1034 net140
*1035 net141
*1036 net142
*1037 net143
*1038 net144
*1039 net145
*1040 net146
*1041 net147
*1042 net148
*1043 net149
*1044 net15
*1045 net150
*1046 net151
*1047 net152
*1048 net153
*1049 net154
*1050 net155
*1051 net156
*1052 net157
*1053 net158
*1054 net159
*1055 net16
*1056 net160
*1057 net161
*1058 net162
*1059 net163
*1060 net164
*1061 net165
*1062 net166
*1063 net167
*1064 net168
*1065 net169
*1066 net17
*1067 net170
*1068 net171
*1069 net172
*1070 net173
*1071 net174
*1072 net175
*1073 net176
*1074 net177
*1075 net178
*1076 net179
*1077 net18
*1078 net180
*1079 net181
*1080 net182
*1081 net183
*1082 net184
*1083 net185
*1084 net186
*1085 net187
*1086 net188
*1087 net189
*1088 net19
*1089 net190
*1090 net191
*1091 net192
*1092 net193
*1093 net194
*1094 net195
*1095 net196
*1096 net197
*1097 net198
*1098 net199
*1099 net2
*1100 net20
*1101 net200
*1102 net201
*1103 net202
*1104 net203
*1105 net204
*1106 net205
*1107 net206
*1108 net207
*1109 net208
*1110 net209
*1111 net21
*1112 net210
*1113 net211
*1114 net212
*1115 net213
*1116 net214
*1117 net215
*1118 net216
*1119 net217
*1120 net218
*1121 net219
*1122 net22
*1123 net220
*1124 net221
*1125 net222
*1126 net223
*1127 net224
*1128 net225
*1129 net226
*1130 net227
*1131 net228
*1132 net229
*1133 net23
*1134 net230
*1135 net231
*1136 net232
*1137 net233
*1138 net234
*1139 net235
*1140 net236
*1141 net237
*1142 net238
*1143 net239
*1144 net24
*1145 net240
*1146 net241
*1147 net242
*1148 net243
*1149 net244
*1150 net245
*1151 net246
*1152 net247
*1153 net248
*1154 net249
*1155 net25
*1156 net250
*1157 net251
*1158 net252
*1159 net253
*1160 net254
*1161 net255
*1162 net256
*1163 net257
*1164 net258
*1165 net259
*1166 net26
*1167 net260
*1168 net261
*1169 net262
*1170 net263
*1171 net264
*1172 net265
*1173 net266
*1174 net267
*1175 net268
*1176 net269
*1177 net27
*1178 net270
*1179 net271
*1180 net272
*1181 net273
*1182 net274
*1183 net275
*1184 net276
*1185 net277
*1186 net278
*1187 net279
*1188 net28
*1189 net280
*1190 net281
*1191 net282
*1192 net283
*1193 net284
*1194 net285
*1195 net286
*1196 net287
*1197 net288
*1198 net289
*1199 net29
*1200 net290
*1201 net291
*1202 net292
*1203 net293
*1204 net294
*1205 net295
*1206 net296
*1207 net297
*1208 net298
*1209 net299
*1210 net3
*1211 net30
*1212 net300
*1213 net301
*1214 net302
*1215 net303
*1216 net304
*1217 net305
*1218 net306
*1219 net307
*1220 net308
*1221 net309
*1222 net31
*1223 net310
*1224 net311
*1225 net312
*1226 net313
*1227 net314
*1228 net315
*1229 net316
*1230 net317
*1231 net318
*1232 net319
*1233 net32
*1234 net320
*1235 net321
*1236 net322
*1237 net323
*1238 net324
*1239 net325
*1240 net326
*1241 net327
*1242 net328
*1243 net329
*1244 net33
*1245 net330
*1246 net331
*1247 net332
*1248 net333
*1249 net334
*1250 net335
*1251 net336
*1252 net337
*1253 net338
*1254 net339
*1255 net34
*1256 net340
*1257 net341
*1258 net342
*1259 net343
*1260 net344
*1261 net345
*1262 net346
*1263 net347
*1264 net348
*1265 net349
*1266 net35
*1267 net350
*1268 net351
*1269 net352
*1270 net353
*1271 net354
*1272 net355
*1273 net356
*1274 net357
*1275 net358
*1276 net359
*1277 net36
*1278 net360
*1279 net361
*1280 net362
*1281 net363
*1282 net364
*1283 net365
*1284 net366
*1285 net367
*1286 net368
*1287 net369
*1288 net37
*1289 net370
*1290 net371
*1291 net372
*1292 net373
*1293 net374
*1294 net375
*1295 net376
*1296 net377
*1297 net378
*1298 net379
*1299 net38
*1300 net380
*1301 net381
*1302 net382
*1303 net383
*1304 net384
*1305 net385
*1306 net386
*1307 net387
*1308 net388
*1309 net389
*1310 net39
*1311 net390
*1312 net391
*1313 net392
*1314 net393
*1315 net394
*1316 net395
*1317 net396
*1318 net397
*1319 net398
*1320 net399
*1321 net4
*1322 net40
*1323 net400
*1324 net401
*1325 net402
*1326 net403
*1327 net404
*1328 net405
*1329 net406
*1330 net407
*1331 net408
*1332 net409
*1333 net41
*1334 net42
*1335 net43
*1336 net44
*1337 net45
*1338 net46
*1339 net47
*1340 net48
*1341 net49
*1342 net5
*1343 net50
*1344 net51
*1345 net52
*1346 net53
*1347 net54
*1348 net55
*1349 net56
*1350 net57
*1351 net58
*1352 net59
*1353 net6
*1354 net60
*1355 net61
*1356 net62
*1357 net63
*1358 net64
*1359 net65
*1360 net66
*1361 net67
*1362 net68
*1363 net69
*1364 net7
*1365 net70
*1366 net71
*1367 net72
*1368 net73
*1369 net74
*1370 net75
*1371 net76
*1372 net77
*1373 net78
*1374 net79
*1375 net8
*1376 net80
*1377 net81
*1378 net82
*1379 net83
*1380 net84
*1381 net85
*1382 net86
*1383 net87
*1384 net88
*1385 net89
*1386 net9
*1387 net90
*1388 net91
*1389 net92
*1390 net93
*1391 net94
*1392 net95
*1393 net96
*1394 net97
*1395 net98
*1396 net99
*1397 team_11_WB\.EN_VAL_REG
*1398 team_11_WB\.instance_to_wrap\.kp\.buffertop\.keycode\[0\]
*1399 team_11_WB\.instance_to_wrap\.kp\.buffertop\.keycode\[1\]
*1400 team_11_WB\.instance_to_wrap\.kp\.buffertop\.keycode\[2\]
*1401 team_11_WB\.instance_to_wrap\.kp\.buffertop\.keycode\[3\]
*1402 team_11_WB\.instance_to_wrap\.kp\.buffertop\.keycode\[4\]
*1403 team_11_WB\.instance_to_wrap\.kp\.buffertop\.keycode\[5\]
*1404 team_11_WB\.instance_to_wrap\.kp\.buffertop\.keycode\[6\]
*1405 team_11_WB\.instance_to_wrap\.kp\.buffertop\.keycode\[7\]
*1406 team_11_WB\.instance_to_wrap\.kp\.buffertop\.keycode_previous\[0\]
*1407 team_11_WB\.instance_to_wrap\.kp\.buffertop\.keycode_previous\[1\]
*1408 team_11_WB\.instance_to_wrap\.kp\.buffertop\.keycode_previous\[2\]
*1409 team_11_WB\.instance_to_wrap\.kp\.buffertop\.keycode_previous\[3\]
*1410 team_11_WB\.instance_to_wrap\.kp\.buffertop\.keycode_previous\[4\]
*1411 team_11_WB\.instance_to_wrap\.kp\.buffertop\.keycode_previous\[5\]
*1412 team_11_WB\.instance_to_wrap\.kp\.buffertop\.keycode_previous\[6\]
*1413 team_11_WB\.instance_to_wrap\.kp\.buffertop\.keycode_previous\[7\]
*1414 team_11_WB\.instance_to_wrap\.kp\.buffertop\.nrst
*1415 team_11_WB\.instance_to_wrap\.kp\.clkdivtop\.count\[0\]
*1416 team_11_WB\.instance_to_wrap\.kp\.clkdivtop\.count\[10\]
*1417 team_11_WB\.instance_to_wrap\.kp\.clkdivtop\.count\[11\]
*1418 team_11_WB\.instance_to_wrap\.kp\.clkdivtop\.count\[12\]
*1419 team_11_WB\.instance_to_wrap\.kp\.clkdivtop\.count\[13\]
*1420 team_11_WB\.instance_to_wrap\.kp\.clkdivtop\.count\[14\]
*1421 team_11_WB\.instance_to_wrap\.kp\.clkdivtop\.count\[15\]
*1422 team_11_WB\.instance_to_wrap\.kp\.clkdivtop\.count\[16\]
*1423 team_11_WB\.instance_to_wrap\.kp\.clkdivtop\.count\[17\]
*1424 team_11_WB\.instance_to_wrap\.kp\.clkdivtop\.count\[18\]
*1425 team_11_WB\.instance_to_wrap\.kp\.clkdivtop\.count\[19\]
*1426 team_11_WB\.instance_to_wrap\.kp\.clkdivtop\.count\[1\]
*1427 team_11_WB\.instance_to_wrap\.kp\.clkdivtop\.count\[20\]
*1428 team_11_WB\.instance_to_wrap\.kp\.clkdivtop\.count\[21\]
*1429 team_11_WB\.instance_to_wrap\.kp\.clkdivtop\.count\[22\]
*1430 team_11_WB\.instance_to_wrap\.kp\.clkdivtop\.count\[23\]
*1431 team_11_WB\.instance_to_wrap\.kp\.clkdivtop\.count\[24\]
*1432 team_11_WB\.instance_to_wrap\.kp\.clkdivtop\.count\[25\]
*1433 team_11_WB\.instance_to_wrap\.kp\.clkdivtop\.count\[26\]
*1434 team_11_WB\.instance_to_wrap\.kp\.clkdivtop\.count\[27\]
*1435 team_11_WB\.instance_to_wrap\.kp\.clkdivtop\.count\[28\]
*1436 team_11_WB\.instance_to_wrap\.kp\.clkdivtop\.count\[29\]
*1437 team_11_WB\.instance_to_wrap\.kp\.clkdivtop\.count\[2\]
*1438 team_11_WB\.instance_to_wrap\.kp\.clkdivtop\.count\[3\]
*1439 team_11_WB\.instance_to_wrap\.kp\.clkdivtop\.count\[4\]
*1440 team_11_WB\.instance_to_wrap\.kp\.clkdivtop\.count\[5\]
*1441 team_11_WB\.instance_to_wrap\.kp\.clkdivtop\.count\[6\]
*1442 team_11_WB\.instance_to_wrap\.kp\.clkdivtop\.count\[7\]
*1443 team_11_WB\.instance_to_wrap\.kp\.clkdivtop\.count\[8\]
*1444 team_11_WB\.instance_to_wrap\.kp\.clkdivtop\.count\[9\]
*1445 team_11_WB\.instance_to_wrap\.kp\.clkdivtop\.next_count\[0\]
*1446 team_11_WB\.instance_to_wrap\.kp\.clkdivtop\.next_count\[10\]
*1447 team_11_WB\.instance_to_wrap\.kp\.clkdivtop\.next_count\[11\]
*1448 team_11_WB\.instance_to_wrap\.kp\.clkdivtop\.next_count\[12\]
*1449 team_11_WB\.instance_to_wrap\.kp\.clkdivtop\.next_count\[13\]
*1450 team_11_WB\.instance_to_wrap\.kp\.clkdivtop\.next_count\[14\]
*1451 team_11_WB\.instance_to_wrap\.kp\.clkdivtop\.next_count\[15\]
*1452 team_11_WB\.instance_to_wrap\.kp\.clkdivtop\.next_count\[16\]
*1453 team_11_WB\.instance_to_wrap\.kp\.clkdivtop\.next_count\[17\]
*1454 team_11_WB\.instance_to_wrap\.kp\.clkdivtop\.next_count\[18\]
*1455 team_11_WB\.instance_to_wrap\.kp\.clkdivtop\.next_count\[19\]
*1456 team_11_WB\.instance_to_wrap\.kp\.clkdivtop\.next_count\[1\]
*1457 team_11_WB\.instance_to_wrap\.kp\.clkdivtop\.next_count\[20\]
*1458 team_11_WB\.instance_to_wrap\.kp\.clkdivtop\.next_count\[21\]
*1459 team_11_WB\.instance_to_wrap\.kp\.clkdivtop\.next_count\[22\]
*1460 team_11_WB\.instance_to_wrap\.kp\.clkdivtop\.next_count\[23\]
*1461 team_11_WB\.instance_to_wrap\.kp\.clkdivtop\.next_count\[24\]
*1462 team_11_WB\.instance_to_wrap\.kp\.clkdivtop\.next_count\[25\]
*1463 team_11_WB\.instance_to_wrap\.kp\.clkdivtop\.next_count\[26\]
*1464 team_11_WB\.instance_to_wrap\.kp\.clkdivtop\.next_count\[27\]
*1465 team_11_WB\.instance_to_wrap\.kp\.clkdivtop\.next_count\[28\]
*1466 team_11_WB\.instance_to_wrap\.kp\.clkdivtop\.next_count\[29\]
*1467 team_11_WB\.instance_to_wrap\.kp\.clkdivtop\.next_count\[2\]
*1468 team_11_WB\.instance_to_wrap\.kp\.clkdivtop\.next_count\[3\]
*1469 team_11_WB\.instance_to_wrap\.kp\.clkdivtop\.next_count\[4\]
*1470 team_11_WB\.instance_to_wrap\.kp\.clkdivtop\.next_count\[5\]
*1471 team_11_WB\.instance_to_wrap\.kp\.clkdivtop\.next_count\[6\]
*1472 team_11_WB\.instance_to_wrap\.kp\.clkdivtop\.next_count\[7\]
*1473 team_11_WB\.instance_to_wrap\.kp\.clkdivtop\.next_count\[8\]
*1474 team_11_WB\.instance_to_wrap\.kp\.clkdivtop\.next_count\[9\]
*1475 team_11_WB\.instance_to_wrap\.kp\.controlstop\.mode
*1476 team_11_WB\.instance_to_wrap\.kp\.controlstop\.msg_tx_ctrl
*1477 team_11_WB\.instance_to_wrap\.kp\.controlstop\.next_msg_tx_ctrl
*1478 team_11_WB\.instance_to_wrap\.kp\.controlstop\.previous_key_count\[0\]
*1479 team_11_WB\.instance_to_wrap\.kp\.controlstop\.previous_key_count\[1\]
*1480 team_11_WB\.instance_to_wrap\.kp\.controlstop\.previous_key_count\[2\]
*1481 team_11_WB\.instance_to_wrap\.kp\.controlstop\.previous_key_count\[3\]
*1482 team_11_WB\.instance_to_wrap\.kp\.controlstop\.upper
*1483 team_11_WB\.instance_to_wrap\.kp\.debouncertop\.keyvalid
*1484 team_11_WB\.instance_to_wrap\.kp\.debouncertop\.next_receive_ready
*1485 team_11_WB\.instance_to_wrap\.kp\.debouncertop\.receive_ready
*1486 team_11_WB\.instance_to_wrap\.kp\.decodertop\.data_received\[0\]
*1487 team_11_WB\.instance_to_wrap\.kp\.decodertop\.data_received\[100\]
*1488 team_11_WB\.instance_to_wrap\.kp\.decodertop\.data_received\[101\]
*1489 team_11_WB\.instance_to_wrap\.kp\.decodertop\.data_received\[102\]
*1490 team_11_WB\.instance_to_wrap\.kp\.decodertop\.data_received\[103\]
*1491 team_11_WB\.instance_to_wrap\.kp\.decodertop\.data_received\[104\]
*1492 team_11_WB\.instance_to_wrap\.kp\.decodertop\.data_received\[105\]
*1493 team_11_WB\.instance_to_wrap\.kp\.decodertop\.data_received\[106\]
*1494 team_11_WB\.instance_to_wrap\.kp\.decodertop\.data_received\[107\]
*1495 team_11_WB\.instance_to_wrap\.kp\.decodertop\.data_received\[108\]
*1496 team_11_WB\.instance_to_wrap\.kp\.decodertop\.data_received\[109\]
*1497 team_11_WB\.instance_to_wrap\.kp\.decodertop\.data_received\[10\]
*1498 team_11_WB\.instance_to_wrap\.kp\.decodertop\.data_received\[110\]
*1499 team_11_WB\.instance_to_wrap\.kp\.decodertop\.data_received\[111\]
*1500 team_11_WB\.instance_to_wrap\.kp\.decodertop\.data_received\[112\]
*1501 team_11_WB\.instance_to_wrap\.kp\.decodertop\.data_received\[113\]
*1502 team_11_WB\.instance_to_wrap\.kp\.decodertop\.data_received\[114\]
*1503 team_11_WB\.instance_to_wrap\.kp\.decodertop\.data_received\[115\]
*1504 team_11_WB\.instance_to_wrap\.kp\.decodertop\.data_received\[116\]
*1505 team_11_WB\.instance_to_wrap\.kp\.decodertop\.data_received\[117\]
*1506 team_11_WB\.instance_to_wrap\.kp\.decodertop\.data_received\[118\]
*1507 team_11_WB\.instance_to_wrap\.kp\.decodertop\.data_received\[119\]
*1508 team_11_WB\.instance_to_wrap\.kp\.decodertop\.data_received\[11\]
*1509 team_11_WB\.instance_to_wrap\.kp\.decodertop\.data_received\[120\]
*1510 team_11_WB\.instance_to_wrap\.kp\.decodertop\.data_received\[121\]
*1511 team_11_WB\.instance_to_wrap\.kp\.decodertop\.data_received\[122\]
*1512 team_11_WB\.instance_to_wrap\.kp\.decodertop\.data_received\[123\]
*1513 team_11_WB\.instance_to_wrap\.kp\.decodertop\.data_received\[124\]
*1514 team_11_WB\.instance_to_wrap\.kp\.decodertop\.data_received\[125\]
*1515 team_11_WB\.instance_to_wrap\.kp\.decodertop\.data_received\[126\]
*1516 team_11_WB\.instance_to_wrap\.kp\.decodertop\.data_received\[127\]
*1517 team_11_WB\.instance_to_wrap\.kp\.decodertop\.data_received\[12\]
*1518 team_11_WB\.instance_to_wrap\.kp\.decodertop\.data_received\[13\]
*1519 team_11_WB\.instance_to_wrap\.kp\.decodertop\.data_received\[14\]
*1520 team_11_WB\.instance_to_wrap\.kp\.decodertop\.data_received\[15\]
*1521 team_11_WB\.instance_to_wrap\.kp\.decodertop\.data_received\[16\]
*1522 team_11_WB\.instance_to_wrap\.kp\.decodertop\.data_received\[17\]
*1523 team_11_WB\.instance_to_wrap\.kp\.decodertop\.data_received\[18\]
*1524 team_11_WB\.instance_to_wrap\.kp\.decodertop\.data_received\[19\]
*1525 team_11_WB\.instance_to_wrap\.kp\.decodertop\.data_received\[1\]
*1526 team_11_WB\.instance_to_wrap\.kp\.decodertop\.data_received\[20\]
*1527 team_11_WB\.instance_to_wrap\.kp\.decodertop\.data_received\[21\]
*1528 team_11_WB\.instance_to_wrap\.kp\.decodertop\.data_received\[22\]
*1529 team_11_WB\.instance_to_wrap\.kp\.decodertop\.data_received\[23\]
*1530 team_11_WB\.instance_to_wrap\.kp\.decodertop\.data_received\[24\]
*1531 team_11_WB\.instance_to_wrap\.kp\.decodertop\.data_received\[25\]
*1532 team_11_WB\.instance_to_wrap\.kp\.decodertop\.data_received\[26\]
*1533 team_11_WB\.instance_to_wrap\.kp\.decodertop\.data_received\[27\]