*SPEF "ieee 1481-1999"
*DESIGN "team_11_Wrapper"
*DATE "16:56:25 Thursday August 22, 2024"
*VENDOR "The OpenROAD Project"
*PROGRAM "OpenROAD"
*VERSION "b16bda7e82721d10566ff7e2b68f1ff0be9f9e38"
*DESIGN_FLOW "NAME_SCOPE LOCAL" "PIN_CAP NONE"
*DIVIDER /
*DELIMITER :
*BUS_DELIMITER []
*T_UNIT 1 NS
*C_UNIT 1 PF
*R_UNIT 1 OHM
*L_UNIT 1 HENRY

*NAME_MAP
*1 ACK_I
*2 ADR_O[0]
*3 ADR_O[10]
*4 ADR_O[11]
*5 ADR_O[12]
*6 ADR_O[13]
*7 ADR_O[14]
*8 ADR_O[15]
*9 ADR_O[16]
*10 ADR_O[17]
*11 ADR_O[18]
*12 ADR_O[19]
*13 ADR_O[1]
*14 ADR_O[20]
*15 ADR_O[21]
*16 ADR_O[22]
*17 ADR_O[23]
*18 ADR_O[24]
*19 ADR_O[25]
*20 ADR_O[26]
*21 ADR_O[27]
*22 ADR_O[28]
*23 ADR_O[29]
*24 ADR_O[2]
*25 ADR_O[30]
*26 ADR_O[31]
*27 ADR_O[3]
*28 ADR_O[4]
*29 ADR_O[5]
*30 ADR_O[6]
*31 ADR_O[7]
*32 ADR_O[8]
*33 ADR_O[9]
*34 CYC_O
*35 DAT_I[0]
*36 DAT_I[10]
*37 DAT_I[11]
*38 DAT_I[12]
*39 DAT_I[13]
*40 DAT_I[14]
*41 DAT_I[15]
*42 DAT_I[16]
*43 DAT_I[17]
*44 DAT_I[18]
*45 DAT_I[19]
*46 DAT_I[1]
*47 DAT_I[20]
*48 DAT_I[21]
*49 DAT_I[22]
*50 DAT_I[23]
*51 DAT_I[24]
*52 DAT_I[25]
*53 DAT_I[26]
*54 DAT_I[27]
*55 DAT_I[28]
*56 DAT_I[29]
*57 DAT_I[2]
*58 DAT_I[30]
*59 DAT_I[31]
*60 DAT_I[3]
*61 DAT_I[4]
*62 DAT_I[5]
*63 DAT_I[6]
*64 DAT_I[7]
*65 DAT_I[8]
*66 DAT_I[9]
*67 DAT_O[0]
*68 DAT_O[10]
*69 DAT_O[11]
*70 DAT_O[12]
*71 DAT_O[13]
*72 DAT_O[14]
*73 DAT_O[15]
*74 DAT_O[16]
*75 DAT_O[17]
*76 DAT_O[18]
*77 DAT_O[19]
*78 DAT_O[1]
*79 DAT_O[20]
*80 DAT_O[21]
*81 DAT_O[22]
*82 DAT_O[23]
*83 DAT_O[24]
*84 DAT_O[25]
*85 DAT_O[26]
*86 DAT_O[27]
*87 DAT_O[28]
*88 DAT_O[29]
*89 DAT_O[2]
*90 DAT_O[30]
*91 DAT_O[31]
*92 DAT_O[3]
*93 DAT_O[4]
*94 DAT_O[5]
*95 DAT_O[6]
*96 DAT_O[7]
*97 DAT_O[8]
*98 DAT_O[9]
*99 SEL_O[0]
*100 SEL_O[1]
*101 SEL_O[2]
*102 SEL_O[3]
*103 STB_O
*104 WE_O
*105 gpio_in[0]
*106 gpio_in[10]
*107 gpio_in[11]
*108 gpio_in[12]
*109 gpio_in[13]
*110 gpio_in[14]
*111 gpio_in[15]
*112 gpio_in[16]
*113 gpio_in[17]
*114 gpio_in[18]
*115 gpio_in[19]
*116 gpio_in[1]
*117 gpio_in[20]
*118 gpio_in[21]
*119 gpio_in[22]
*120 gpio_in[23]
*121 gpio_in[24]
*122 gpio_in[25]
*123 gpio_in[26]
*124 gpio_in[27]
*125 gpio_in[28]
*126 gpio_in[29]
*127 gpio_in[2]
*128 gpio_in[30]
*129 gpio_in[31]
*130 gpio_in[32]
*131 gpio_in[33]
*132 gpio_in[34]
*133 gpio_in[35]
*134 gpio_in[36]
*135 gpio_in[37]
*136 gpio_in[3]
*137 gpio_in[4]
*138 gpio_in[5]
*139 gpio_in[6]
*140 gpio_in[7]
*141 gpio_in[8]
*142 gpio_in[9]
*143 gpio_oeb[0]
*144 gpio_oeb[10]
*145 gpio_oeb[11]
*146 gpio_oeb[12]
*147 gpio_oeb[13]
*148 gpio_oeb[14]
*149 gpio_oeb[15]
*150 gpio_oeb[16]
*151 gpio_oeb[17]
*152 gpio_oeb[18]
*153 gpio_oeb[19]
*154 gpio_oeb[1]
*155 gpio_oeb[20]
*156 gpio_oeb[21]
*157 gpio_oeb[22]
*158 gpio_oeb[23]
*159 gpio_oeb[24]
*160 gpio_oeb[25]
*161 gpio_oeb[26]
*162 gpio_oeb[27]
*163 gpio_oeb[28]
*164 gpio_oeb[29]
*165 gpio_oeb[2]
*166 gpio_oeb[30]
*167 gpio_oeb[31]
*168 gpio_oeb[32]
*169 gpio_oeb[33]
*170 gpio_oeb[34]
*171 gpio_oeb[35]
*172 gpio_oeb[36]
*173 gpio_oeb[37]
*174 gpio_oeb[3]
*175 gpio_oeb[4]
*176 gpio_oeb[5]
*177 gpio_oeb[6]
*178 gpio_oeb[7]
*179 gpio_oeb[8]
*180 gpio_oeb[9]
*181 gpio_out[0]
*182 gpio_out[10]
*183 gpio_out[11]
*184 gpio_out[12]
*185 gpio_out[13]
*186 gpio_out[14]
*187 gpio_out[15]
*188 gpio_out[16]
*189 gpio_out[17]
*190 gpio_out[18]
*191 gpio_out[19]
*192 gpio_out[1]
*193 gpio_out[20]
*194 gpio_out[21]
*195 gpio_out[22]
*196 gpio_out[23]
*197 gpio_out[24]
*198 gpio_out[25]
*199 gpio_out[26]
*200 gpio_out[27]
*201 gpio_out[28]
*202 gpio_out[29]
*203 gpio_out[2]
*204 gpio_out[30]
*205 gpio_out[31]
*206 gpio_out[32]
*207 gpio_out[33]
*208 gpio_out[34]
*209 gpio_out[35]
*210 gpio_out[36]
*211 gpio_out[37]
*212 gpio_out[3]
*213 gpio_out[4]
*214 gpio_out[5]
*215 gpio_out[6]
*216 gpio_out[7]
*217 gpio_out[8]
*218 gpio_out[9]
*219 irq[0]
*220 irq[1]
*221 irq[2]
*222 la_data_in[0]
*223 la_data_in[100]
*224 la_data_in[101]
*225 la_data_in[102]
*226 la_data_in[103]
*227 la_data_in[104]
*228 la_data_in[105]
*229 la_data_in[106]
*230 la_data_in[107]
*231 la_data_in[108]
*232 la_data_in[109]
*233 la_data_in[10]
*234 la_data_in[110]
*235 la_data_in[111]
*236 la_data_in[112]
*237 la_data_in[113]
*238 la_data_in[114]
*239 la_data_in[115]
*240 la_data_in[116]
*241 la_data_in[117]
*242 la_data_in[118]
*243 la_data_in[119]
*244 la_data_in[11]
*245 la_data_in[120]
*246 la_data_in[121]
*247 la_data_in[122]
*248 la_data_in[123]
*249 la_data_in[124]
*250 la_data_in[125]
*251 la_data_in[126]
*252 la_data_in[127]
*253 la_data_in[12]
*254 la_data_in[13]
*255 la_data_in[14]
*256 la_data_in[15]
*257 la_data_in[16]
*258 la_data_in[17]
*259 la_data_in[18]
*260 la_data_in[19]
*261 la_data_in[1]
*262 la_data_in[20]
*263 la_data_in[21]
*264 la_data_in[22]
*265 la_data_in[23]
*266 la_data_in[24]
*267 la_data_in[25]
*268 la_data_in[26]
*269 la_data_in[27]
*270 la_data_in[28]
*271 la_data_in[29]
*272 la_data_in[2]
*273 la_data_in[30]
*274 la_data_in[31]
*275 la_data_in[32]
*276 la_data_in[33]
*277 la_data_in[34]
*278 la_data_in[35]
*279 la_data_in[36]
*280 la_data_in[37]
*281 la_data_in[38]
*282 la_data_in[39]
*283 la_data_in[3]
*284 la_data_in[40]
*285 la_data_in[41]
*286 la_data_in[42]
*287 la_data_in[43]
*288 la_data_in[44]
*289 la_data_in[45]
*290 la_data_in[46]
*291 la_data_in[47]
*292 la_data_in[48]
*293 la_data_in[49]
*294 la_data_in[4]
*295 la_data_in[50]
*296 la_data_in[51]
*297 la_data_in[52]
*298 la_data_in[53]
*299 la_data_in[54]
*300 la_data_in[55]
*301 la_data_in[56]
*302 la_data_in[57]
*303 la_data_in[58]
*304 la_data_in[59]
*305 la_data_in[5]
*306 la_data_in[60]
*307 la_data_in[61]
*308 la_data_in[62]
*309 la_data_in[63]
*310 la_data_in[64]
*311 la_data_in[65]
*312 la_data_in[66]
*313 la_data_in[67]
*314 la_data_in[68]
*315 la_data_in[69]
*316 la_data_in[6]
*317 la_data_in[70]
*318 la_data_in[71]
*319 la_data_in[72]
*320 la_data_in[73]
*321 la_data_in[74]
*322 la_data_in[75]
*323 la_data_in[76]
*324 la_data_in[77]
*325 la_data_in[78]
*326 la_data_in[79]
*327 la_data_in[7]
*328 la_data_in[80]
*329 la_data_in[81]
*330 la_data_in[82]
*331 la_data_in[83]
*332 la_data_in[84]
*333 la_data_in[85]
*334 la_data_in[86]
*335 la_data_in[87]
*336 la_data_in[88]
*337 la_data_in[89]
*338 la_data_in[8]
*339 la_data_in[90]
*340 la_data_in[91]
*341 la_data_in[92]
*342 la_data_in[93]
*343 la_data_in[94]
*344 la_data_in[95]
*345 la_data_in[96]
*346 la_data_in[97]
*347 la_data_in[98]
*348 la_data_in[99]
*349 la_data_in[9]
*350 la_data_out[0]
*351 la_data_out[100]
*352 la_data_out[101]
*353 la_data_out[102]
*354 la_data_out[103]
*355 la_data_out[104]
*356 la_data_out[105]
*357 la_data_out[106]
*358 la_data_out[107]
*359 la_data_out[108]
*360 la_data_out[109]
*361 la_data_out[10]
*362 la_data_out[110]
*363 la_data_out[111]
*364 la_data_out[112]
*365 la_data_out[113]
*366 la_data_out[114]
*367 la_data_out[115]
*368 la_data_out[116]
*369 la_data_out[117]
*370 la_data_out[118]
*371 la_data_out[119]
*372 la_data_out[11]
*373 la_data_out[120]
*374 la_data_out[121]
*375 la_data_out[122]
*376 la_data_out[123]
*377 la_data_out[124]
*378 la_data_out[125]
*379 la_data_out[126]
*380 la_data_out[127]
*381 la_data_out[12]
*382 la_data_out[13]
*383 la_data_out[14]
*384 la_data_out[15]
*385 la_data_out[16]
*386 la_data_out[17]
*387 la_data_out[18]
*388 la_data_out[19]
*389 la_data_out[1]
*390 la_data_out[20]
*391 la_data_out[21]
*392 la_data_out[22]
*393 la_data_out[23]
*394 la_data_out[24]
*395 la_data_out[25]
*396 la_data_out[26]
*397 la_data_out[27]
*398 la_data_out[28]
*399 la_data_out[29]
*400 la_data_out[2]
*401 la_data_out[30]
*402 la_data_out[31]
*403 la_data_out[32]
*404 la_data_out[33]
*405 la_data_out[34]
*406 la_data_out[35]
*407 la_data_out[36]
*408 la_data_out[37]
*409 la_data_out[38]
*410 la_data_out[39]
*411 la_data_out[3]
*412 la_data_out[40]
*413 la_data_out[41]
*414 la_data_out[42]
*415 la_data_out[43]
*416 la_data_out[44]
*417 la_data_out[45]
*418 la_data_out[46]
*419 la_data_out[47]
*420 la_data_out[48]
*421 la_data_out[49]
*422 la_data_out[4]
*423 la_data_out[50]
*424 la_data_out[51]
*425 la_data_out[52]
*426 la_data_out[53]
*427 la_data_out[54]
*428 la_data_out[55]
*429 la_data_out[56]
*430 la_data_out[57]
*431 la_data_out[58]
*432 la_data_out[59]
*433 la_data_out[5]
*434 la_data_out[60]
*435 la_data_out[61]
*436 la_data_out[62]
*437 la_data_out[63]
*438 la_data_out[64]
*439 la_data_out[65]
*440 la_data_out[66]
*441 la_data_out[67]
*442 la_data_out[68]
*443 la_data_out[69]
*444 la_data_out[6]
*445 la_data_out[70]
*446 la_data_out[71]
*447 la_data_out[72]
*448 la_data_out[73]
*449 la_data_out[74]
*450 la_data_out[75]
*451 la_data_out[76]
*452 la_data_out[77]
*453 la_data_out[78]
*454 la_data_out[79]
*455 la_data_out[7]
*456 la_data_out[80]
*457 la_data_out[81]
*458 la_data_out[82]
*459 la_data_out[83]
*460 la_data_out[84]
*461 la_data_out[85]
*462 la_data_out[86]
*463 la_data_out[87]
*464 la_data_out[88]
*465 la_data_out[89]
*466 la_data_out[8]
*467 la_data_out[90]
*468 la_data_out[91]
*469 la_data_out[92]
*470 la_data_out[93]
*471 la_data_out[94]
*472 la_data_out[95]
*473 la_data_out[96]
*474 la_data_out[97]
*475 la_data_out[98]
*476 la_data_out[99]
*477 la_data_out[9]
*478 la_oenb[0]
*479 la_oenb[100]
*480 la_oenb[101]
*481 la_oenb[102]
*482 la_oenb[103]
*483 la_oenb[104]
*484 la_oenb[105]
*485 la_oenb[106]
*486 la_oenb[107]
*487 la_oenb[108]
*488 la_oenb[109]
*489 la_oenb[10]
*490 la_oenb[110]
*491 la_oenb[111]
*492 la_oenb[112]
*493 la_oenb[113]
*494 la_oenb[114]
*495 la_oenb[115]
*496 la_oenb[116]
*497 la_oenb[117]
*498 la_oenb[118]
*499 la_oenb[119]
*500 la_oenb[11]
*501 la_oenb[120]
*502 la_oenb[121]
*503 la_oenb[122]
*504 la_oenb[123]
*505 la_oenb[124]
*506 la_oenb[125]
*507 la_oenb[126]
*508 la_oenb[127]
*509 la_oenb[12]
*510 la_oenb[13]
*511 la_oenb[14]
*512 la_oenb[15]
*513 la_oenb[16]
*514 la_oenb[17]
*515 la_oenb[18]
*516 la_oenb[19]
*517 la_oenb[1]
*518 la_oenb[20]
*519 la_oenb[21]
*520 la_oenb[22]
*521 la_oenb[23]
*522 la_oenb[24]
*523 la_oenb[25]
*524 la_oenb[26]
*525 la_oenb[27]
*526 la_oenb[28]
*527 la_oenb[29]
*528 la_oenb[2]
*529 la_oenb[30]
*530 la_oenb[31]
*531 la_oenb[32]
*532 la_oenb[33]
*533 la_oenb[34]
*534 la_oenb[35]
*535 la_oenb[36]
*536 la_oenb[37]
*537 la_oenb[38]
*538 la_oenb[39]
*539 la_oenb[3]
*540 la_oenb[40]
*541 la_oenb[41]
*542 la_oenb[42]
*543 la_oenb[43]
*544 la_oenb[44]
*545 la_oenb[45]
*546 la_oenb[46]
*547 la_oenb[47]
*548 la_oenb[48]
*549 la_oenb[49]
*550 la_oenb[4]
*551 la_oenb[50]
*552 la_oenb[51]
*553 la_oenb[52]
*554 la_oenb[53]
*555 la_oenb[54]
*556 la_oenb[55]
*557 la_oenb[56]
*558 la_oenb[57]
*559 la_oenb[58]
*560 la_oenb[59]
*561 la_oenb[5]
*562 la_oenb[60]
*563 la_oenb[61]
*564 la_oenb[62]
*565 la_oenb[63]
*566 la_oenb[64]
*567 la_oenb[65]
*568 la_oenb[66]
*569 la_oenb[67]
*570 la_oenb[68]
*571 la_oenb[69]
*572 la_oenb[6]
*573 la_oenb[70]
*574 la_oenb[71]
*575 la_oenb[72]
*576 la_oenb[73]
*577 la_oenb[74]
*578 la_oenb[75]
*579 la_oenb[76]
*580 la_oenb[77]
*581 la_oenb[78]
*582 la_oenb[79]
*583 la_oenb[7]
*584 la_oenb[80]
*585 la_oenb[81]
*586 la_oenb[82]
*587 la_oenb[83]
*588 la_oenb[84]
*589 la_oenb[85]
*590 la_oenb[86]
*591 la_oenb[87]
*592 la_oenb[88]
*593 la_oenb[89]
*594 la_oenb[8]
*595 la_oenb[90]
*596 la_oenb[91]
*597 la_oenb[92]
*598 la_oenb[93]
*599 la_oenb[94]
*600 la_oenb[95]
*601 la_oenb[96]
*602 la_oenb[97]
*603 la_oenb[98]
*604 la_oenb[99]
*605 la_oenb[9]
*608 wb_clk_i
*609 wb_rst_i
*610 wbs_ack_o
*611 wbs_adr_i[0]
*612 wbs_adr_i[10]
*613 wbs_adr_i[11]
*614 wbs_adr_i[12]
*615 wbs_adr_i[13]
*616 wbs_adr_i[14]
*617 wbs_adr_i[15]
*618 wbs_adr_i[16]
*619 wbs_adr_i[17]
*620 wbs_adr_i[18]
*621 wbs_adr_i[19]
*622 wbs_adr_i[1]
*623 wbs_adr_i[20]
*624 wbs_adr_i[21]
*625 wbs_adr_i[22]
*626 wbs_adr_i[23]
*627 wbs_adr_i[24]
*628 wbs_adr_i[25]
*629 wbs_adr_i[26]
*630 wbs_adr_i[27]
*631 wbs_adr_i[28]
*632 wbs_adr_i[29]
*633 wbs_adr_i[2]
*634 wbs_adr_i[30]
*635 wbs_adr_i[31]
*636 wbs_adr_i[3]
*637 wbs_adr_i[4]
*638 wbs_adr_i[5]
*639 wbs_adr_i[6]
*640 wbs_adr_i[7]
*641 wbs_adr_i[8]
*642 wbs_adr_i[9]
*643 wbs_cyc_i
*644 wbs_dat_i[0]
*645 wbs_dat_i[10]
*646 wbs_dat_i[11]
*647 wbs_dat_i[12]
*648 wbs_dat_i[13]
*649 wbs_dat_i[14]
*650 wbs_dat_i[15]
*651 wbs_dat_i[16]
*652 wbs_dat_i[17]
*653 wbs_dat_i[18]
*654 wbs_dat_i[19]
*655 wbs_dat_i[1]
*656 wbs_dat_i[20]
*657 wbs_dat_i[21]
*658 wbs_dat_i[22]
*659 wbs_dat_i[23]
*660 wbs_dat_i[24]
*661 wbs_dat_i[25]
*662 wbs_dat_i[26]
*663 wbs_dat_i[27]
*664 wbs_dat_i[28]
*665 wbs_dat_i[29]
*666 wbs_dat_i[2]
*667 wbs_dat_i[30]
*668 wbs_dat_i[31]
*669 wbs_dat_i[3]
*670 wbs_dat_i[4]
*671 wbs_dat_i[5]
*672 wbs_dat_i[6]
*673 wbs_dat_i[7]
*674 wbs_dat_i[8]
*675 wbs_dat_i[9]
*676 wbs_dat_o[0]
*677 wbs_dat_o[10]
*678 wbs_dat_o[11]
*679 wbs_dat_o[12]
*680 wbs_dat_o[13]
*681 wbs_dat_o[14]
*682 wbs_dat_o[15]
*683 wbs_dat_o[16]
*684 wbs_dat_o[17]
*685 wbs_dat_o[18]
*686 wbs_dat_o[19]
*687 wbs_dat_o[1]
*688 wbs_dat_o[20]
*689 wbs_dat_o[21]
*690 wbs_dat_o[22]
*691 wbs_dat_o[23]
*692 wbs_dat_o[24]
*693 wbs_dat_o[25]
*694 wbs_dat_o[26]
*695 wbs_dat_o[27]
*696 wbs_dat_o[28]
*697 wbs_dat_o[29]
*698 wbs_dat_o[2]
*699 wbs_dat_o[30]
*700 wbs_dat_o[31]
*701 wbs_dat_o[3]
*702 wbs_dat_o[4]
*703 wbs_dat_o[5]
*704 wbs_dat_o[6]
*705 wbs_dat_o[7]
*706 wbs_dat_o[8]
*707 wbs_dat_o[9]
*708 wbs_sel_i[0]
*709 wbs_sel_i[1]
*710 wbs_sel_i[2]
*711 wbs_sel_i[3]
*712 wbs_stb_i
*713 wbs_we_i
*714 _0000_
*715 _0001_
*716 _0002_
*717 _0003_
*718 _0004_
*719 _0005_
*720 _0006_
*721 _0007_
*722 _0008_
*723 _0009_
*724 _0010_
*725 _0011_
*726 _0012_
*727 _0013_
*728 _0014_
*729 _0015_
*730 _0016_
*731 _0017_
*732 _0018_
*733 _0019_
*734 _0020_
*735 _0021_
*736 _0022_
*737 _0023_
*738 _0024_
*739 _0025_
*740 _0026_
*741 _0027_
*742 _0028_
*743 _0029_
*744 _0030_
*745 _0031_
*746 _0032_
*747 _0033_
*748 _0034_
*749 _0035_
*750 _0036_
*751 _0037_
*752 _0038_
*753 _0039_
*754 _0040_
*755 _0041_
*756 _0042_
*757 _0043_
*758 _0044_
*759 _0045_
*760 _0046_
*761 _0047_
*762 _0048_
*763 _0049_
*764 _0050_
*765 _0051_
*766 _0052_
*767 _0053_
*768 _0054_
*769 _0055_
*770 _0056_
*771 _0057_
*772 _0058_
*773 _0059_
*774 _0060_
*775 _0061_
*776 _0062_
*777 _0063_
*778 _0064_
*779 _0065_
*780 _0066_
*781 _0067_
*782 _0068_
*783 _0069_
*784 _0070_
*785 _0071_
*786 _0072_
*787 _0073_
*788 _0074_
*789 _0075_
*790 _0076_
*791 _0077_
*792 _0078_
*793 _0079_
*794 _0080_
*795 _0081_
*796 _0082_
*797 _0083_
*798 _0084_
*799 _0085_
*800 _0086_
*801 _0087_
*802 _0088_
*803 _0089_
*804 _0090_
*805 _0091_
*806 _0092_
*807 _0093_
*808 _0094_
*809 _0095_
*810 _0096_
*811 _0097_
*812 _0098_
*813 _0099_
*814 _0100_
*815 _0101_
*816 _0102_
*817 _0103_
*818 _0104_
*819 _0105_
*820 _0106_
*821 _0107_
*822 _0108_
*823 _0109_
*824 _0110_
*825 _0111_
*826 _0112_
*827 _0113_
*828 _0114_
*829 _0115_
*830 _0116_
*831 _0117_
*832 _0118_
*833 _0119_
*834 _0120_
*835 _0121_
*836 _0122_
*837 _0123_
*838 _0124_
*839 _0125_
*840 _0126_
*841 _0127_
*842 _0128_
*843 _0129_
*844 _0130_
*845 _0131_
*846 _0132_
*847 _0133_
*848 _0134_
*849 _0135_
*850 _0136_
*851 _0137_
*852 _0138_
*853 _0139_
*854 _0140_
*855 _0141_
*856 _0142_
*857 _0143_
*858 _0144_
*859 _0145_
*860 _0146_
*861 _0147_
*862 _0148_
*863 _0149_
*864 _0150_
*865 _0151_
*866 _0152_
*867 _0153_
*868 _0154_
*869 _0155_
*870 _0156_
*871 _0157_
*872 _0158_
*873 _0159_
*874 _0160_
*875 _0161_
*876 _0162_
*877 _0163_
*878 _0164_
*879 _0165_
*880 _0166_
*881 _0167_
*882 _0168_
*883 _0169_
*884 _0170_
*885 _0171_
*886 _0172_
*887 _0173_
*888 _0174_
*889 _0175_
*890 _0176_
*891 _0177_
*892 _0178_
*893 _0179_
*894 _0180_
*895 _0181_
*896 _0182_
*897 _0183_
*898 _0184_
*899 _0185_
*900 _0186_
*901 _0187_
*902 _0188_
*903 _0189_
*904 _0190_
*905 _0191_
*906 _0192_
*907 _0193_
*908 _0194_
*909 _0195_
*910 _0196_
*911 _0197_
*912 _0198_
*913 _0199_
*914 _0200_
*915 _0201_
*916 _0202_
*917 _0203_
*918 _0204_
*919 _0205_
*920 _0206_
*921 _0207_
*922 _0208_
*923 _0209_
*924 _0210_
*925 _0211_
*926 _0212_
*927 _0213_
*928 _0214_
*929 _0215_
*930 _0216_
*931 _0217_
*932 _0218_
*933 _0219_
*934 _0220_
*935 _0221_
*936 _0222_
*937 _0223_
*938 _0224_
*939 _0225_
*940 _0226_
*941 _0227_
*942 _0228_
*943 _0229_
*944 _0230_
*945 _0231_
*946 _0232_
*947 _0233_
*948 _0234_
*949 _0235_
*950 _0236_
*951 _0237_
*952 _0238_
*953 _0239_
*954 _0240_
*955 _0241_
*956 _0242_
*957 _0243_
*958 _0244_
*959 _0245_
*960 _0246_
*961 _0247_
*962 _0248_
*963 _0249_
*964 _0250_
*965 _0251_
*966 _0252_
*967 _0253_
*968 _0254_
*969 _0255_
*970 _0256_
*971 _0257_
*972 _0258_
*973 _0259_
*974 _0260_
*975 _0261_
*976 _0262_
*977 _0263_
*978 _0264_
*979 _0265_
*980 _0266_
*981 _0267_
*982 _0268_
*983 _0269_
*984 _0270_
*985 _0271_
*986 _0272_
*987 _0273_
*988 _0274_
*989 _0275_
*990 _0276_
*991 _0277_
*992 _0278_
*993 _0279_
*994 _0280_
*995 _0281_
*996 _0282_
*997 _0283_
*998 _0284_
*999 _0285_
*1000 _0286_
*1001 _0287_
*1002 _0288_
*1003 _0289_
*1004 _0290_
*1005 _0291_
*1006 _0292_
*1007 _0293_
*1008 _0294_
*1009 _0295_
*1010 _0296_
*1011 _0297_
*1012 _0298_
*1013 _0299_
*1014 _0300_
*1015 _0301_
*1016 _0302_
*1017 _0303_
*1018 _0304_
*1019 _0305_
*1020 _0306_
*1021 _0307_
*1022 _0308_
*1023 _0309_
*1024 _0310_
*1025 _0311_
*1026 _0312_
*1027 _0313_
*1028 _0314_
*1029 _0315_
*1030 _0316_
*1031 _0317_
*1032 _0318_
*1033 _0319_
*1034 _0320_
*1035 _0321_
*1036 _0322_
*1037 _0323_
*1038 _0324_
*1039 _0325_
*1040 _0326_
*1041 _0327_
*1042 _0328_
*1043 _0329_
*1044 _0330_
*1045 _0331_
*1046 _0332_
*1047 _0333_
*1048 _0334_
*1049 _0335_
*1050 _0336_
*1051 _0337_
*1052 _0338_
*1053 _0339_
*1054 _0340_
*1055 _0341_
*1056 _0342_
*1057 _0343_
*1058 _0344_
*1059 _0345_
*1060 _0346_
*1061 _0347_
*1062 _0348_
*1063 _0349_
*1064 _0350_
*1065 _0351_
*1066 _0352_
*1067 _0353_
*1068 _0354_
*1069 _0355_
*1070 _0356_
*1071 _0357_
*1072 _0358_
*1073 _0359_
*1074 _0360_
*1075 _0361_
*1076 _0362_
*1077 _0363_
*1078 _0364_
*1079 _0365_
*1080 _0366_
*1081 _0367_
*1082 _0368_
*1083 _0369_
*1084 _0370_
*1085 _0371_
*1086 _0372_
*1087 _0373_
*1088 _0374_
*1089 _0375_
*1090 _0376_
*1091 _0377_
*1092 _0378_
*1093 _0379_
*1094 _0380_
*1095 _0381_
*1096 _0382_
*1097 _0383_
*1098 _0384_
*1099 _0385_
*1100 _0386_
*1101 _0387_
*1102 _0388_
*1103 _0389_
*1104 _0390_
*1105 _0391_
*1106 _0392_
*1107 _0393_
*1108 _0394_
*1109 _0395_
*1110 _0396_
*1111 _0397_
*1112 _0398_
*1113 _0399_
*1114 _0400_
*1115 _0401_
*1116 _0402_
*1117 _0403_
*1118 _0404_
*1119 _0405_
*1120 _0406_
*1121 _0407_
*1122 _0408_
*1123 _0409_
*1124 _0410_
*1125 _0411_
*1126 _0412_
*1127 _0413_
*1128 _0414_
*1129 _0415_
*1130 _0416_
*1131 _0417_
*1132 _0418_
*1133 _0419_
*1134 _0420_
*1135 _0421_
*1136 _0422_
*1137 _0423_
*1138 _0424_
*1139 _0425_
*1140 _0426_
*1141 _0427_
*1142 _0428_
*1143 _0429_
*1144 _0430_
*1145 _0431_
*1146 _0432_
*1147 _0433_
*1148 _0434_
*1149 _0435_
*1150 _0436_
*1151 _0437_
*1152 _0438_
*1153 _0439_
*1154 _0440_
*1155 _0441_
*1156 _0442_
*1157 _0443_
*1158 _0444_
*1159 _0445_
*1160 _0446_
*1161 _0447_
*1162 _0448_
*1163 _0449_
*1164 _0450_
*1165 _0451_
*1166 _0452_
*1167 _0453_
*1168 _0454_
*1169 _0455_
*1170 _0456_
*1171 _0457_
*1172 _0458_
*1173 _0459_
*1174 _0460_
*1175 _0461_
*1176 _0462_
*1177 _0463_
*1178 _0464_
*1179 _0465_
*1180 _0466_
*1181 _0467_
*1182 _0468_
*1183 _0469_
*1184 _0470_
*1185 _0471_
*1186 _0472_
*1187 _0473_
*1188 _0474_
*1189 _0475_
*1190 _0476_
*1191 _0477_
*1192 _0478_
*1193 _0479_
*1194 _0480_
*1195 _0481_
*1196 _0482_
*1197 _0483_
*1198 _0484_
*1199 _0485_
*1200 _0486_
*1201 _0487_
*1202 _0488_
*1203 _0489_
*1204 _0490_
*1205 _0491_
*1206 _0492_
*1207 _0493_
*1208 _0494_
*1209 _0495_
*1210 _0496_
*1211 _0497_
*1212 _0498_
*1213 _0499_
*1214 _0500_
*1215 _0501_
*1216 _0502_
*1217 _0503_
*1218 _0504_
*1219 _0505_
*1220 _0506_
*1221 _0507_
*1222 _0508_
*1223 _0509_
*1224 _0510_
*1225 _0511_
*1226 _0512_
*1227 _0513_
*1228 _0514_
*1229 _0515_
*1230 _0516_
*1231 _0517_
*1232 _0518_
*1233 _0519_
*1234 _0520_
*1235 _0521_
*1236 _0522_
*1237 _0523_
*1238 _0524_
*1239 _0525_
*1240 _0526_
*1241 _0527_
*1242 _0528_
*1243 _0529_
*1244 _0530_
*1245 _0531_
*1246 _0532_
*1247 _0533_
*1248 _0534_
*1249 _0535_
*1250 _0536_
*1251 _0537_
*1252 _0538_
*1253 _0539_
*1254 _0540_
*1255 _0541_
*1256 _0542_
*1257 _0543_
*1258 _0544_
*1259 _0545_
*1260 _0546_
*1261 _0547_
*1262 _0548_
*1263 _0549_
*1264 _0550_
*1265 _0551_
*1266 _0552_
*1267 _0553_
*1268 _0554_
*1269 _0555_
*1270 _0556_
*1271 _0557_
*1272 _0558_
*1273 _0559_
*1274 _0560_
*1275 _0561_
*1276 _0562_
*1277 _0563_
*1278 _0564_
*1279 _0565_
*1280 _0566_
*1281 _0567_
*1282 _0568_
*1283 _0569_
*1284 _0570_
*1285 _0571_
*1286 _0572_
*1287 _0573_
*1288 _0574_
*1289 _0575_
*1290 _0576_
*1291 _0577_
*1292 _0578_
*1293 _0579_
*1294 _0580_
*1295 _0581_
*1296 _0582_
*1297 _0583_
*1298 _0584_
*1299 _0585_
*1300 _0586_
*1301 _0587_
*1302 _0588_
*1303 _0589_
*1304 _0590_
*1305 _0591_
*1306 _0592_
*1307 _0593_
*1308 _0594_
*1309 _0595_
*1310 _0596_
*1311 _0597_
*1312 _0598_
*1313 _0599_
*1314 _0600_
*1315 _0601_
*1316 _0602_
*1317 _0603_
*1318 _0604_
*1319 _0605_
*1320 _0606_
*1321 _0607_
*1322 _0608_
*1323 _0609_
*1324 _0610_
*1325 _0611_
*1326 _0612_
*1327 _0613_
*1328 _0614_
*1329 _0615_
*1330 _0616_
*1331 _0617_
*1332 _0618_
*1333 _0619_
*1334 _0620_
*1335 _0621_
*1336 _0622_
*1337 _0623_
*1338 _0624_
*1339 _0625_
*1340 _0626_
*1341 _0627_
*1342 _0628_
*1343 _0629_
*1344 _0630_
*1345 _0631_
*1346 _0632_
*1347 _0633_
*1348 _0634_
*1349 _0635_
*1350 _0636_
*1351 _0637_
*1352 _0638_
*1353 _0639_
*1354 _0640_
*1355 _0641_
*1356 _0642_
*1357 _0643_
*1358 _0644_
*1359 _0645_
*1360 _0646_
*1361 _0647_
*1362 _0648_
*1363 _0649_
*1364 _0650_
*1365 _0651_
*1366 _0652_
*1367 _0653_
*1368 _0654_
*1369 _0655_
*1370 _0656_
*1371 _0657_
*1372 _0658_
*1373 _0659_
*1374 _0660_
*1375 _0661_
*1376 _0662_
*1377 _0663_
*1378 _0664_
*1379 _0665_
*1380 _0666_
*1381 _0667_
*1382 _0668_
*1383 _0669_
*1384 _0670_
*1385 _0671_
*1386 _0672_
*1387 _0673_
*1388 _0674_
*1389 _0675_
*1390 _0676_
*1391 _0677_
*1392 _0678_
*1393 _0679_
*1394 _0680_
*1395 _0681_
*1396 _0682_
*1397 _0683_
*1398 _0684_
*1399 _0685_
*1400 _0686_
*1401 _0687_
*1402 _0688_
*1403 _0689_
*1404 _0690_
*1405 _0691_
*1406 _0692_
*1407 _0693_
*1408 _0694_
*1409 _0695_
*1410 _0696_
*1411 _0697_
*1412 _0698_
*1413 _0699_
*1414 _0700_
*1415 _0701_
*1416 _0702_
*1417 _0703_
*1418 _0704_
*1419 _0705_
*1420 _0706_
*1421 _0707_
*1422 _0708_
*1423 _0709_
*1424 _0710_
*1425 _0711_
*1426 _0712_
*1427 _0713_
*1428 _0714_
*1429 _0715_
*1430 _0716_
*1431 _0717_
*1432 _0718_
*1433 _0719_
*1434 _0720_
*1435 _0721_
*1436 _0722_
*1437 _0723_
*1438 _0724_
*1439 _0725_
*1440 _0726_
*1441 _0727_
*1442 _0728_
*1443 _0729_
*1444 _0730_
*1445 clknet_0_wb_clk_i
*1446 clknet_2_0__leaf_wb_clk_i
*1447 clknet_2_1__leaf_wb_clk_i
*1448 clknet_2_2__leaf_wb_clk_i
*1449 clknet_2_3__leaf_wb_clk_i
*1450 clknet_leaf_0_wb_clk_i
*1451 clknet_leaf_10_wb_clk_i
*1452 clknet_leaf_11_wb_clk_i
*1453 clknet_leaf_12_wb_clk_i
*1454 clknet_leaf_13_wb_clk_i
*1455 clknet_leaf_14_wb_clk_i
*1456 clknet_leaf_15_wb_clk_i
*1457 clknet_leaf_16_wb_clk_i
*1458 clknet_leaf_17_wb_clk_i
*1459 clknet_leaf_18_wb_clk_i
*1460 clknet_leaf_19_wb_clk_i
*1461 clknet_leaf_1_wb_clk_i
*1462 clknet_leaf_20_wb_clk_i
*1463 clknet_leaf_21_wb_clk_i
*1464 clknet_leaf_22_wb_clk_i
*1465 clknet_leaf_23_wb_clk_i
*1466 clknet_leaf_24_wb_clk_i
*1467 clknet_leaf_25_wb_clk_i
*1468 clknet_leaf_26_wb_clk_i
*1469 clknet_leaf_27_wb_clk_i
*1470 clknet_leaf_28_wb_clk_i
*1471 clknet_leaf_2_wb_clk_i
*1472 clknet_leaf_3_wb_clk_i
*1473 clknet_leaf_4_wb_clk_i
*1474 clknet_leaf_5_wb_clk_i
*1475 clknet_leaf_6_wb_clk_i
*1476 clknet_leaf_7_wb_clk_i
*1477 clknet_leaf_8_wb_clk_i
*1478 clknet_leaf_9_wb_clk_i
*1479 net1
*1480 net10
*1481 net100
*1482 net101
*1483 net102
*1484 net103
*1485 net104
*1486 net105
*1487 net106
*1488 net107
*1489 net108
*1490 net109
*1491 net11
*1492 net110
*1493 net111
*1494 net112
*1495 net113
*1496 net114
*1497 net115
*1498 net116
*1499 net117
*1500 net118
*1501 net119
*1502 net12
*1503 net120
*1504 net121
*1505 net122
*1506 net123
*1507 net124
*1508 net125
*1509 net126
*1510 net127
*1511 net128
*1512 net129
*1513 net13
*1514 net130
*1515 net131
*1516 net132
*1517 net133
*1518 net134
*1519 net135
*1520 net136
*1521 net137
*1522 net138
*1523 net139
*1524 net14
*1525 net140
*1526 net141
*1527 net142
*1528 net143
*1529 net144
*1530 net145
*1531 net146
*1532 net147
*1533 net148
*1534 net149
*1535 net15
*1536 net150
*1537 net151
*1538 net152
*1539 net153
*1540 net154
*1541 net155
*1542 net156
*1543 net157
*1544 net158
*1545 net159
*1546 net16
*1547 net160
*1548 net161
*1549 net162
*1550 net163
*1551 net164
*1552 net165
*1553 net166
*1554 net167
*1555 net168
*1556 net169
*1557 net17
*1558 net170
*1559 net171
*1560 net172
*1561 net173
*1562 net174
*1563 net175
*1564 net176
*1565 net177
*1566 net178
*1567 net179
*1568 net18
*1569 net180
*1570 net181
*1571 net182
*1572 net183
*1573 net184
*1574 net185
*1575 net186
*1576 net187
*1577 net188
*1578 net189
*1579 net19
*1580 net190
*1581 net191
*1582 net192
*1583 net193
*1584 net194
*1585 net195
*1586 net196
*1587 net197
*1588 net198
*1589 net199
*1590 net2
*1591 net20
*1592 net200
*1593 net201
*1594 net202
*1595 net203
*1596 net204
*1597 net205
*1598 net206
*1599 net207
*1600 net208
*1601 net209
*1602 net21
*1603 net210
*1604 net211
*1605 net212
*1606 net213
*1607 net214
*1608 net215
*1609 net216
*1610 net217
*1611 net218
*1612 net219
*1613 net22
*1614 net220
*1615 net221
*1616 net222
*1617 net223
*1618 net224
*1619 net225
*1620 net226
*1621 net227
*1622 net228
*1623 net229
*1624 net23
*1625 net230
*1626 net231
*1627 net232
*1628 net233
*1629 net234
*1630 net235
*1631 net236
*1632 net237
*1633 net238
*1634 net239
*1635 net24
*1636 net240
*1637 net241
*1638 net242
*1639 net243
*1640 net244
*1641 net245
*1642 net246
*1643 net247
*1644 net248
*1645 net249
*1646 net25
*1647 net250
*1648 net251
*1649 net252
*1650 net253
*1651 net254
*1652 net255
*1653 net256
*1654 net257
*1655 net258
*1656 net259
*1657 net26
*1658 net260
*1659 net261
*1660 net262
*1661 net263
*1662 net264
*1663 net265
*1664 net266
*1665 net267
*1666 net268
*1667 net269
*1668 net27
*1669 net270
*1670 net271
*1671 net272
*1672 net273
*1673 net274
*1674 net275
*1675 net276
*1676 net277
*1677 net278
*1678 net279
*1679 net28
*1680 net280
*1681 net281
*1682 net282
*1683 net283
*1684 net284
*1685 net285
*1686 net286
*1687 net287
*1688 net288
*1689 net289
*1690 net29
*1691 net290
*1692 net291
*1693 net292
*1694 net293
*1695 net294
*1696 net295
*1697 net296
*1698 net297
*1699 net298
*1700 net299
*1701 net3
*1702 net30
*1703 net300
*1704 net301
*1705 net302
*1706 net303
*1707 net304
*1708 net305
*1709 net306
*1710 net307
*1711 net308
*1712 net309
*1713 net31
*1714 net310
*1715 net311
*1716 net312
*1717 net313
*1718 net314
*1719 net315
*1720 net316
*1721 net317
*1722 net318
*1723 net319
*1724 net32
*1725 net320
*1726 net321
*1727 net322
*1728 net323
*1729 net324
*1730 net325
*1731 net326
*1732 net327
*1733 net328
*1734 net329
*1735 net33
*1736 net330
*1737 net331
*1738 net332
*1739 net333
*1740 net334
*1741 net335
*1742 net336
*1743 net337
*1744 net338
*1745 net339
*1746 net34
*1747 net340
*1748 net341
*1749 net342
*1750 net343
*1751 net344
*1752 net345
*1753 net346
*1754 net347
*1755 net348
*1756 net349
*1757 net35
*1758 net350
*1759 net351
*1760 net352
*1761 net353
*1762 net354
*1763 net355
*1764 net356
*1765 net357
*1766 net358
*1767 net359
*1768 net36
*1769 net360
*1770 net361
*1771 net362
*1772 net363
*1773 net364
*1774 net365
*1775 net366
*1776 net367
*1777 net368
*1778 net369
*1779 net37
*1780 net370
*1781 net371
*1782 net372
*1783 net373
*1784 net374
*1785 net375
*1786 net376
*1787 net377
*1788 net378
*1789 net379
*1790 net38
*1791 net380
*1792 net381
*1793 net382
*1794 net383
*1795 net384
*1796 net385
*1797 net386
*1798 net387
*1799 net388
*1800 net389
*1801 net39
*1802 net390
*1803 net391
*1804 net392
*1805 net393
*1806 net394
*1807 net395
*1808 net396
*1809 net397
*1810 net398
*1811 net399
*1812 net4
*1813 net40
*1814 net400
*1815 net401
*1816 net402
*1817 net403
*1818 net404
*1819 net405
*1820 net406
*1821 net407
*1822 net408
*1823 net409
*1824 net41
*1825 net410
*1826 net411
*1827 net412
*1828 net413
*1829 net414
*1830 net415
*1831 net416
*1832 net417
*1833 net418
*1834 net419
*1835 net42
*1836 net420
*1837 net421
*1838 net422
*1839 net423
*1840 net424
*1841 net425
*1842 net426
*1843 net427
*1844 net428
*1845 net429
*1846 net43
*1847 net430
*1848 net431
*1849 net432
*1850 net433
*1851 net434
*1852 net435
*1853 net436
*1854 net437
*1855 net438
*1856 net439
*1857 net44
*1858 net440
*1859 net441
*1860 net442
*1861 net443
*1862 net444
*1863 net445
*1864 net446
*1865 net447
*1866 net448
*1867 net449
*1868 net45
*1869 net450
*1870 net451
*1871 net452
*1872 net453
*1873 net454
*1874 net455
*1875 net456
*1876 net457
*1877 net458
*1878 net459
*1879 net46
*1880 net460
*1881 net461
*1882 net462
*1883 net463
*1884 net464
*1885 net465
*1886 net466
*1887 net467
*1888 net468
*1889 net469
*1890 net47
*1891 net470
*1892 net471
*1893 net472
*1894 net473
*1895 net474
*1896 net475
*1897 net476
*1898 net477
*1899 net478
*1900 net479
*1901 net48
*1902 net480
*1903 net481
*1904 net482
*1905 net483
*1906 net484
*1907 net485
*1908 net486
*1909 net487
*1910 net488
*1911 net489
*1912 net49
*1913 net490
*1914 net491
*1915 net492
*1916 net493
*1917 net494
*1918 net495
*1919 net496
*1920 net497
*1921 net498
*1922 net499
*1923 net5
*1924 net50
*1925 net500
*1926 net501
*1927 net502
*1928 net503
*1929 net504
*1930 net505
*1931 net506
*1932 net507
*1933 net508
*1934 net509
*1935 net51
*1936 net510
*1937 net511
*1938 net512
*1939 net513
*1940 net514
*1941 net515
*1942 net516
*1943 net517
*1944 net518
*1945 net519
*1946 net52
*1947 net520
*1948 net521
*1949 net522
*1950 net523
*1951 net524
*1952 net525
*1953 net526
*1954 net527
*1955 net528
*1956 net529
*1957 net53
*1958 net530
*1959 net531
*1960 net532
*1961 net533
*1962 net534
*1963 net535
*1964 net536
*1965 net537
*1966 net538
*1967 net539
*1968 net54
*1969 net540
*1970 net541
*1971 net542
*1972 net543
*1973 net544
*1974 net545
*1975 net546
*1976 net547
*1977 net548
*1978 net549
*1979 net55
*1980 net550
*1981 net551
*1982 net552
*1983 net553
*1984 net554
*1985 net555
*1986 net556
*1987 net557